
     RDKit          3D

  7  7  0  0  0  0  0  0  0  0999 V2000
    9.9380  -33.2000  -31.6520 C   0  0  0  0  0  0  0  0  0  0  0  0
   12.0140  -33.4690  -33.3030 C   0  0  0  0  0  0  0  0  0  0  0  0
    8.3440  -34.3650  -33.1260 C   0  0  0  0  0  0  0  0  0  0  0  0
   11.9610  -34.9940  -34.3380 Cl  0  0  0  0  0  0  0  0  0  0  0  0
    9.4350  -34.1740  -34.1080 C   0  0  0  0  0  0  0  0  0  0  0  0
    8.2670  -32.9400  -32.2350 C   0  0  0  0  0  0  0  0  0  0  0  0
   10.4990  -33.2370  -33.0990 C   0  0  0  0  0  0  0  0  0  0  0  0
  2  7  1  0
  3  6  1  0
  4  2  1  0
  5  3  1  0
  5  7  1  0
  6  1  1  0
  7  1  1  0
M  END
$$$$

     RDKit          3D

 10 10  0  0  0  0  0  0  0  0999 V2000
    7.7940  -33.9860  -33.5430 C   0  0  0  0  0  0  0  0  0  0  0  0
   11.6710  -33.5960  -31.6860 O   0  0  0  0  0  0  0  0  0  0  0  0
    8.9870  -33.2590  -32.7940 S   0  0  0  0  0  0  0  0  0  0  0  0
    8.2220  -35.0600  -34.1890 C   0  0  0  0  0  0  0  0  0  0  0  0
    9.6470  -35.1040  -33.9980 O   0  0  0  0  0  0  0  0  0  0  0  0
    6.3240  -33.5510  -33.6150 C   0  0  0  0  0  0  0  0  0  0  0  0
   10.1930  -33.9850  -33.5910 C   0  0  0  0  0  0  0  0  0  0  0  0
   12.3570  -33.7930  -33.8030 O   0  0  0  0  0  0  0  0  0  0  0  0
    5.5870  -34.4360  -34.3810 O   0  0  0  0  0  0  0  0  0  0  0  0
   11.5050  -33.8150  -32.9750 C   0  0  0  0  0  0  0  0  0  0  0  0
  1  6  1  0
  1  3  1  0
  4  5  1  0
  4  1  1  0
  5  7  1  0
  7 10  1  0
  7  3  1  0
  8 10  2  0
  9  6  1  0
 10  2  1  0
M  END
$$$$

     RDKit          3D

 11 12  0  0  0  0  0  0  0  0999 V2000
    7.4480  -33.7480  -33.2200 C   0  0  0  0  0  0  0  0  0  0  0  0
    9.2190  -35.4600  -35.2050 C   0  0  0  0  0  0  0  0  0  0  0  0
   10.3090  -34.9600  -34.3710 C   0  0  0  0  0  0  0  0  0  0  0  0
    7.1860  -34.5390  -34.3500 C   0  0  0  0  0  0  0  0  0  0  0  0
    9.2160  -33.0650  -31.6430 C   0  0  0  0  0  0  0  0  0  0  0  0
    5.9800  -34.4420  -34.4990 F   0  0  0  0  0  0  0  0  0  0  0  0
   10.7540  -34.0040  -32.3040 N   0  0  0  0  0  0  0  0  0  0  0  0
    7.9620  -35.2410  -35.0480 C   0  0  0  0  0  0  0  0  0  0  0  0
   10.3930  -33.3480  -31.3540 C   0  0  0  0  0  0  0  0  0  0  0  0
    9.9020  -34.3050  -33.2350 C   0  0  0  0  0  0  0  0  0  0  0  0
    8.7850  -33.7180  -32.8050 C   0  0  0  0  0  0  0  0  0  0  0  0
  1 11  1  0
  2  8  1  0
  2  3  1  0
  3 10  1  0
  4  1  1  0
  5  9  1  0
  6  4  1  0
  7  9  1  0
  8  4  2  0
 10 11  1  0
 10  7  2  0
 11  5  2  0
M  END
$$$$

     RDKit          3D

 33 35  0  0  0  0  0  0  0  0999 V2000
   15.8740  -34.4030  -33.4540 N   0  0  0  0  0  0  0  0  0  0  0  0
    9.5830  -35.8820  -35.2830 C   0  0  0  0  0  0  0  0  0  0  0  0
   16.7210  -33.3760  -34.0950 C   0  0  0  0  0  0  0  0  0  0  0  0
   11.2980  -32.9170  -29.4690 C   0  0  0  0  0  0  0  0  0  0  0  0
   10.2530  -33.3230  -30.2710 C   0  0  0  0  0  0  0  0  0  0  0  0
   12.6530  -33.2150  -29.6810 C   0  0  0  0  0  0  0  0  0  0  0  0
   20.9120  -32.7730  -32.0850 C   0  0  0  0  0  0  0  0  0  0  0  0
   11.0110  -32.1790  -27.9370 Cl  0  0  0  0  0  0  0  0  0  0  0  0
    4.1710  -34.9600  -37.5120 C   0  0  0  0  0  0  0  0  0  0  0  0
    2.8720  -33.4470  -36.2770 C   0  0  0  0  0  0  0  0  0  0  0  0
    7.5110  -34.4310  -34.2090 C   0  0  0  0  0  0  0  0  0  0  0  0
   13.6210  -33.1140  -33.2400 C   0  0  0  0  0  0  0  0  0  0  0  0
   12.8280  -33.5440  -32.0800 C   0  0  0  0  0  0  0  0  0  0  0  0
   18.8890  -34.0850  -33.0510 C   0  0  0  0  0  0  0  0  0  0  0  0
   21.1510  -33.8760  -34.4150 C   0  0  0  0  0  0  0  0  0  0  0  0
    9.0270  -34.1980  -32.2140 O   0  0  0  0  0  0  0  0  0  0  0  0
   20.4910  -34.0760  -33.1110 C   0  0  0  0  0  0  0  0  0  0  0  0
    3.1650  -34.0590  -37.5190 C   0  0  0  0  0  0  0  0  0  0  0  0
    5.1330  -34.1050  -35.4280 C   0  0  0  0  0  0  0  0  0  0  0  0
    8.3950  -35.8090  -36.0170 C   0  0  0  0  0  0  0  0  0  0  0  0
   18.1800  -33.4250  -33.9520 C   0  0  0  0  0  0  0  0  0  0  0  0
   14.4130  -34.3040  -33.3780 C   0  0  0  0  0  0  0  0  0  0  0  0
   13.4050  -33.4830  -30.7880 C   0  0  0  0  0  0  0  0  0  0  0  0
    9.7470  -35.4320  -34.0210 C   0  0  0  0  0  0  0  0  0  0  0  0
    7.3620  -35.2710  -35.3390 C   0  0  0  0  0  0  0  0  0  0  0  0
   10.2510  -33.8140  -31.5060 C   0  0  0  0  0  0  0  0  0  0  0  0
    6.3360  -32.6850  -33.0480 C   0  0  0  0  0  0  0  0  0  0  0  0
    5.1390  -34.9770  -36.5660 C   0  0  0  0  0  0  0  0  0  0  0  0
    3.9510  -33.4360  -35.3170 C   0  0  0  0  0  0  0  0  0  0  0  0
    6.2840  -33.6580  -34.1970 C   0  0  0  0  0  0  0  0  0  0  0  0
   13.9130  -35.3830  -33.6980 O   0  0  0  0  0  0  0  0  0  0  0  0
   11.4800  -33.8980  -32.2390 C   0  0  0  0  0  0  0  0  0  0  0  0
    8.7670  -34.6760  -33.4230 C   0  0  0  0  0  0  0  0  0  0  0  0
  1 22  1  0
  2 24  1  0
  3 21  1  0
  3  1  2  3
  4  8  1  0
  5  4  2  0
  6  4  1  0
  9 28  1  0
 10 29  2  0
 11 30  2  3
 11 33  1  0
 12 13  1  0
 13 23  2  0
 15 17  1  0
 16 26  1  0
 17 14  1  0
 17  7  1  0
 18  9  2  0
 18 10  1  0
 19 29  1  0
 19 30  1  0
 20 25  1  0
 20  2  1  0
 21 14  2  3
 22 12  1  0
 23  6  1  0
 24 33  2  0
 25 11  1  0
 26  5  1  0
 28 19  2  0
 30 27  1  0
 31 22  2  0
 32 13  1  0
 32 26  2  0
 33 16  1  0
M  END
$$$$

     RDKit          3D

 11 12  0  0  0  0  0  0  0  0999 V2000
   11.1030  -33.7830  -33.7270 C   0  0  0  0  0  0  0  0  0  0  0  0
    8.9510  -34.4040  -32.5380 C   0  0  0  0  0  0  0  0  0  0  0  0
   11.2030  -34.5010  -32.5820 C   0  0  0  0  0  0  0  0  0  0  0  0
   10.6220  -35.7820  -34.9060 O   0  0  0  0  0  0  0  0  0  0  0  0
   12.5630  -34.0750  -33.9970 C   0  0  0  0  0  0  0  0  0  0  0  0
   10.3360  -34.3680  -34.7800 C   0  0  0  0  0  0  0  0  0  0  0  0
    8.6700  -35.6190  -33.3900 C   0  0  0  0  0  0  0  0  0  0  0  0
    9.9530  -34.5230  -31.9880 C   0  0  0  0  0  0  0  0  0  0  0  0
    9.3410  -35.4890  -34.6070 C   0  0  0  0  0  0  0  0  0  0  0  0
   11.0040  -32.6600  -33.2940 C   0  0  0  0  0  0  0  0  0  0  0  0
    8.2160  -33.3820  -33.2620 O   0  0  0  0  0  0  0  0  0  0  0  0
  1 10  1  0
  1  3  1  0
  2 11  1  0
  2  8  1  0
  3  8  1  0
  4  9  1  0
  5  1  1  0
  6  4  1  0
  6  9  1  0
  6  1  1  0
  7  2  1  0
  9  7  1  0
M  END
$$$$

     RDKit          3D

 27 30  0  0  0  0  0  0  0  0999 V2000
    2.0330  -34.3360  -39.0860 C   0  0  0  0  0  0  0  0  0  0  0  0
   11.8910  -32.4770  -27.1750 C   0  0  0  0  0  0  0  0  0  0  0  0
    3.5580  -34.7960  -37.1580 C   0  0  0  0  0  0  0  0  0  0  0  0
    6.9050  -33.8410  -33.7740 C   0  0  0  0  0  0  0  0  0  0  0  0
   13.7390  -32.8310  -30.7550 C   0  0  0  0  0  0  0  0  0  0  0  0
   13.6870  -32.8810  -32.1890 C   0  0  0  0  0  0  0  0  0  0  0  0
    4.9650  -35.1790  -36.7000 C   0  0  0  0  0  0  0  0  0  0  0  0
   15.8740  -31.8190  -27.9860 C   0  0  0  0  0  0  0  0  0  0  0  0
   12.6250  -33.0930  -33.1020 C   0  0  0  0  0  0  0  0  0  0  0  0
    3.2310  -33.9760  -39.9380 C   0  0  0  0  0  0  0  0  0  0  0  0
   16.7860  -31.6550  -27.1660 C   0  0  0  0  0  0  0  0  0  0  0  0
    7.5360  -35.4760  -35.3680 C   0  0  0  0  0  0  0  0  0  0  0  0
    8.9130  -35.3460  -35.0140 C   0  0  0  0  0  0  0  0  0  0  0  0
    5.1830  -34.4810  -35.4740 C   0  0  0  0  0  0  0  0  0  0  0  0
   10.6360  -34.5850  -33.5640 C   0  0  0  0  0  0  0  0  0  0  0  0
    9.2520  -34.4490  -33.9490 C   0  0  0  0  0  0  0  0  0  0  0  0
    8.2730  -33.7600  -33.2920 C   0  0  0  0  0  0  0  0  0  0  0  0
   15.0190  -32.5400  -30.2040 C   0  0  0  0  0  0  0  0  0  0  0  0
   13.1120  -32.7270  -27.4210 O   0  0  0  0  0  0  0  0  0  0  0  0
    6.5970  -34.5840  -34.8630 C   0  0  0  0  0  0  0  0  0  0  0  0
   12.7810  -32.8870  -29.7980 C   0  0  0  0  0  0  0  0  0  0  0  0
   11.4150  -33.8160  -32.7090 C   0  0  0  0  0  0  0  0  0  0  0  0
    2.4550  -35.3480  -38.0700 C   0  0  0  0  0  0  0  0  0  0  0  0
    4.5080  -33.4930  -38.9860 C   0  0  0  0  0  0  0  0  0  0  0  0
   14.8490  -32.2120  -28.8460 C   0  0  0  0  0  0  0  0  0  0  0  0
   13.5050  -32.4810  -28.5890 C   0  0  0  0  0  0  0  0  0  0  0  0
    4.8110  -34.6910  -38.0980 C   0  0  0  0  0  0  0  0  0  0  0  0
  1 23  1  0
  3 23  1  0
  3  7  1  0
  4 17  1  0
  5 18  2  0
  5 21  1  0
  6  5  1  0
  7 14  1  0
  8 11  3  0
  9 22  1  0
  9  6  1  0
 10  1  1  0
 10 24  1  0
 12 13  2  0
 12 20  1  0
 13 16  1  0
 14 20  1  0
 15 22  1  0
 16 15  1  0
 16 17  2  0
 18 25  1  0
 19  2  1  0
 20  4  2  0
 21 26  1  0
 25 26  2  0
 25  8  1  0
 26 19  1  0
 27 24  1  0
 27  3  1  0
 27  7  1  0
M  END
$$$$

     RDKit          3D

 18 19  0  0  0  0  0  0  0  0999 V2000
   12.1360  -33.7470  -33.3820 C   0  0  0  0  0  0  0  0  0  0  0  0
   14.5040  -33.4280  -33.8430 C   0  0  0  0  0  0  0  0  0  0  0  0
   11.1460  -33.2370  -30.2250 C   0  0  0  0  0  0  0  0  0  0  0  0
   11.2770  -32.6840  -31.7250 O   0  0  0  0  0  0  0  0  0  0  0  0
    5.8070  -35.9140  -35.9750 C   0  0  0  0  0  0  0  0  0  0  0  0
   13.2140  -33.9420  -34.1860 C   0  0  0  0  0  0  0  0  0  0  0  0
    8.5160  -35.3320  -33.4960 C   0  0  0  0  0  0  0  0  0  0  0  0
    9.7150  -34.8950  -33.0880 C   0  0  0  0  0  0  0  0  0  0  0  0
   10.8920  -34.3290  -33.6260 O   0  0  0  0  0  0  0  0  0  0  0  0
   13.6440  -32.5200  -31.8560 C   0  0  0  0  0  0  0  0  0  0  0  0
    6.6900  -35.3660  -34.9610 C   0  0  0  0  0  0  0  0  0  0  0  0
    7.3650  -33.5440  -33.4740 O   0  0  0  0  0  0  0  0  0  0  0  0
    6.8800  -35.5500  -37.1480 C   0  0  0  0  0  0  0  0  0  0  0  0
    7.5510  -35.6900  -36.0520 C   0  0  0  0  0  0  0  0  0  0  0  0
   12.3410  -32.8970  -32.2350 C   0  0  0  0  0  0  0  0  0  0  0  0
    6.1470  -32.8410  -33.3760 C   0  0  0  0  0  0  0  0  0  0  0  0
   14.6500  -32.7120  -32.6970 C   0  0  0  0  0  0  0  0  0  0  0  0
    7.5010  -34.7120  -33.9740 C   0  0  0  0  0  0  0  0  0  0  0  0
  1 15  1  0
  2 17  2  0
  4  3  1  0
  5 11  1  0
  6  2  1  0
  6  1  2  0
  7  8  1  0
  9  1  1  0
  9  8  1  0
 11 18  1  0
 12 16  1  0
 13 14  1  0
 13  5  1  0
 14 11  1  0
 15 10  2  0
 15  4  1  0
 17 10  1  0
 18  7  1  0
 18 12  1  0
M  END
$$$$

     RDKit          3D

 25 26  0  0  0  0  0  0  0  0999 V2000
    3.2080  -33.0710  -37.2530 O   0  0  0  0  0  0  0  0  0  0  0  0
   10.3650  -35.9490  -33.2960 C   0  0  0  0  0  0  0  0  0  0  0  0
    4.9550  -33.3930  -34.7470 C   0  0  0  0  0  0  0  0  0  0  0  0
   13.2360  -33.0910  -33.7840 C   0  0  0  0  0  0  0  0  0  0  0  0
    4.8330  -34.1160  -35.8710 C   0  0  0  0  0  0  0  0  0  0  0  0
   10.9600  -34.6400  -33.7110 C   0  0  0  0  0  0  0  0  0  0  0  0
   13.1720  -32.0620  -31.6790 C   0  0  0  0  0  0  0  0  0  0  0  0
    3.7150  -34.0690  -36.8480 C   0  0  0  0  0  0  0  0  0  0  0  0
   14.8040  -33.4640  -33.6790 C   0  0  0  0  0  0  0  0  0  0  0  0
   15.8390  -32.5410  -34.2940 C   0  0  0  0  0  0  0  0  0  0  0  0
    6.8890  -35.2470  -35.2510 C   0  0  0  0  0  0  0  0  0  0  0  0
   13.0320  -31.7760  -33.1580 C   0  0  0  0  0  0  0  0  0  0  0  0
    5.8320  -35.0870  -36.0390 C   0  0  0  0  0  0  0  0  0  0  0  0
    7.0860  -34.3660  -34.1510 C   0  0  0  0  0  0  0  0  0  0  0  0
   11.9330  -34.8830  -34.6560 O   0  0  0  0  0  0  0  0  0  0  0  0
   12.5900  -33.3370  -31.5120 C   0  0  0  0  0  0  0  0  0  0  0  0
    8.9760  -33.6720  -32.4190 C   0  0  0  0  0  0  0  0  0  0  0  0
   11.4990  -33.7750  -32.5130 C   0  0  0  0  0  0  0  0  0  0  0  0
    8.8940  -35.8550  -33.5310 C   0  0  0  0  0  0  0  0  0  0  0  0
    8.4210  -34.5100  -33.5380 N   0  0  0  0  0  0  0  0  0  0  0  0
   10.2500  -33.7970  -31.6150 C   0  0  0  0  0  0  0  0  0  0  0  0
    6.0350  -33.5230  -33.8540 C   0  0  0  0  0  0  0  0  0  0  0  0
   17.2600  -33.1060  -34.2500 C   0  0  0  0  0  0  0  0  0  0  0  0
    4.3870  -34.5260  -38.2240 O   0  0  0  0  0  0  0  0  0  0  0  0
   12.8370  -34.1310  -30.3170 C   0  0  0  0  0  0  0  0  0  0  0  0
  1  8  1  0
  3 22  1  0
  4  9  1  0
  4 12  1  0
  5  3  2  0
  6 15  1  0
  6  2  1  0
  6 18  1  0
  7 16  1  0
  8  5  1  0
 10 23  1  0
 10  9  1  0
 11 14  1  0
 12  7  1  0
 13  5  1  0
 13 11  2  0
 14 22  2  0
 14 20  1  0
 16 25  1  0
 17 21  1  0
 18 21  1  0
 18 16  1  0
 19  2  1  0
 20 19  1  0
 20 17  1  0
 24  8  1  0
M  END
$$$$

     RDKit          3D

 29 31  0  0  0  0  0  0  0  0999 V2000
   12.8390  -34.6360  -35.6460 O   0  0  0  0  0  0  0  0  0  0  0  0
    5.1400  -33.8570  -35.9980 C   0  0  0  0  0  0  0  0  0  0  0  0
   10.1960  -33.0670  -32.0480 N   0  0  0  0  0  0  0  0  0  0  0  0
    9.3230  -34.7190  -33.5170 C   0  0  0  0  0  0  0  0  0  0  0  0
   12.4330  -32.7640  -30.5400 O   0  0  0  0  0  0  0  0  0  0  0  0
   15.0340  -33.4910  -34.7060 O   0  0  0  0  0  0  0  0  0  0  0  0
    8.4550  -35.1000  -34.4330 C   0  0  0  0  0  0  0  0  0  0  0  0
   13.8850  -33.4730  -33.8970 C   0  0  0  0  0  0  0  0  0  0  0  0
    4.5570  -35.2830  -37.9000 C   0  0  0  0  0  0  0  0  0  0  0  0
   12.8160  -34.0950  -34.3400 C   0  0  0  0  0  0  0  0  0  0  0  0
    7.9010  -33.0730  -32.8290 C   0  0  0  0  0  0  0  0  0  0  0  0
   13.7870  -32.9750  -32.6080 C   0  0  0  0  0  0  0  0  0  0  0  0
   12.6230  -33.0360  -31.9010 C   0  0  0  0  0  0  0  0  0  0  0  0
    9.2240  -33.5980  -32.7890 C   0  0  0  0  0  0  0  0  0  0  0  0
    6.6190  -35.6010  -36.2080 C   0  0  0  0  0  0  0  0  0  0  0  0
   12.4410  -31.6570  -28.3670 C   0  0  0  0  0  0  0  0  0  0  0  0
   11.4660  -33.2620  -29.5570 C   0  0  0  0  0  0  0  0  0  0  0  0
    6.9370  -33.4800  -33.6680 C   0  0  0  0  0  0  0  0  0  0  0  0
   13.5170  -33.4520  -28.6290 C   0  0  0  0  0  0  0  0  0  0  0  0
    7.2070  -34.4320  -34.5660 C   0  0  0  0  0  0  0  0  0  0  0  0
    4.9380  -33.8200  -37.5890 C   0  0  0  0  0  0  0  0  0  0  0  0
    6.2940  -31.7390  -31.7900 C   0  0  0  0  0  0  0  0  0  0  0  0
   11.4600  -33.3590  -32.4380 C   0  0  0  0  0  0  0  0  0  0  0  0
   11.6800  -33.9770  -33.5500 C   0  0  0  0  0  0  0  0  0  0  0  0
    6.2560  -34.5740  -35.7150 C   0  0  0  0  0  0  0  0  0  0  0  0
   16.3040  -32.9820  -34.1780 C   0  0  0  0  0  0  0  0  0  0  0  0
    7.6200  -32.1810  -31.8620 O   0  0  0  0  0  0  0  0  0  0  0  0
   12.5420  -32.6550  -29.2240 C   0  0  0  0  0  0  0  0  0  0  0  0
    5.6790  -36.1400  -37.3130 C   0  0  0  0  0  0  0  0  0  0  0  0
  1 10  1  0
  2 25  1  0
  4 14  1  0
  5 28  1  0
  6 26  1  0
  6  8  1  0
  7  4  2  0
  8 12  1  0
  9 21  1  0
  9 29  1  0
 10  8  2  0
 10 24  1  0
 11 14  2  0
 11 27  1  0
 12 13  2  0
 13  5  1  0
 14  3  1  0
 15 25  1  0
 17 28  1  0
 18 11  1  0
 20  7  1  0
 20 18  2  0
 21  2  1  0
 23  3  1  0
 23 13  1  0
 24 23  2  0
 25 20  1  0
 27 22  1  0
 28 19  1  0
 28 16  1  0
 29 15  1  0
M  END
$$$$

     RDKit          3D

 20 20  0  0  0  0  0  0  0  0999 V2000
   14.1750  -33.1180  -33.4690 C   0  0  0  0  0  0  0  0  0  0  0  0
    6.0190  -35.9800  -35.7020 Cl  0  0  0  0  0  0  0  0  0  0  0  0
   11.0300  -33.0520  -32.0000 N   0  0  0  0  0  0  0  0  0  0  0  0
    7.8170  -35.1660  -34.0380 C   0  0  0  0  0  0  0  0  0  0  0  0
   11.4710  -33.8860  -32.8340 C   0  0  0  0  0  0  0  0  0  0  0  0
    7.2750  -32.5990  -32.6390 C   0  0  0  0  0  0  0  0  0  0  0  0
   12.7800  -33.8480  -33.3870 C   0  0  0  0  0  0  0  0  0  0  0  0
   10.8200  -35.0100  -32.9830 O   0  0  0  0  0  0  0  0  0  0  0  0
   12.6100  -34.3250  -34.7210 O   0  0  0  0  0  0  0  0  0  0  0  0
    6.2140  -32.8680  -33.3450 C   0  0  0  0  0  0  0  0  0  0  0  0
    8.5240  -34.4270  -33.2090 C   0  0  0  0  0  0  0  0  0  0  0  0
    6.6150  -34.8250  -34.5730 C   0  0  0  0  0  0  0  0  0  0  0  0
   11.7310  -33.0920  -29.6530 C   0  0  0  0  0  0  0  0  0  0  0  0
   10.6320  -32.1610  -29.2940 C   0  0  0  0  0  0  0  0  0  0  0  0
    9.7220  -31.3680  -29.2170 C   0  0  0  0  0  0  0  0  0  0  0  0
    8.5020  -33.2540  -32.5760 C   0  0  0  0  0  0  0  0  0  0  0  0
    9.6420  -32.7530  -31.7640 C   0  0  0  0  0  0  0  0  0  0  0  0
    5.9040  -33.7910  -34.2210 C   0  0  0  0  0  0  0  0  0  0  0  0
   11.9740  -32.7880  -31.0350 C   0  0  0  0  0  0  0  0  0  0  0  0
   12.6940  -35.4250  -34.9570 C   0  0  0  0  0  0  0  0  0  0  0  0
  2 12  1  0
  3 17  1  0
  3 19  1  0
  4 11  1  0
  5  3  1  0
  6 16  2  0
  7  1  1  0
  7  5  1  0
  8  5  2  0
  9  7  1  0
 10  6  1  0
 11 16  1  0
 12 18  1  0
 12  4  2  0
 13 14  1  0
 14 15  3  0
 16 17  1  0
 18 10  2  0
 19 13  1  0
 20  9  1  0
M  END
$$$$

     RDKit          3D

 14 15  0  0  0  0  0  0  0  0999 V2000
    7.2070  -35.6290  -35.4490 C   0  0  0  0  0  0  0  0  0  0  0  0
    4.7740  -33.0000  -33.8840 C   0  0  0  0  0  0  0  0  0  0  0  0
    9.1550  -34.8660  -34.0090 C   0  0  0  0  0  0  0  0  0  0  0  0
   10.0840  -35.5150  -34.2780 O   0  0  0  0  0  0  0  0  0  0  0  0
    4.7830  -34.9010  -35.9880 C   0  0  0  0  0  0  0  0  0  0  0  0
    3.7040  -34.0850  -35.6970 C   0  0  0  0  0  0  0  0  0  0  0  0
    2.5530  -34.2240  -36.5740 O   0  0  0  0  0  0  0  0  0  0  0  0
    7.1150  -32.1630  -32.1780 Cl  0  0  0  0  0  0  0  0  0  0  0  0
    3.7890  -33.1730  -34.7150 C   0  0  0  0  0  0  0  0  0  0  0  0
    6.0560  -33.7740  -34.0670 C   0  0  0  0  0  0  0  0  0  0  0  0
    8.3580  -35.1730  -34.8410 N   0  0  0  0  0  0  0  0  0  0  0  0
    8.6290  -33.9630  -33.0940 N   0  0  0  0  0  0  0  0  0  0  0  0
    6.0120  -34.7580  -35.2110 C   0  0  0  0  0  0  0  0  0  0  0  0
    7.3230  -33.4540  -33.2970 C   0  0  0  0  0  0  0  0  0  0  0  0
  1 13  1  0
  1 11  1  0
  3 12  1  0
  4  3  2  0
  5  6  2  0
  5 13  1  0
  6  9  1  0
  7  6  1  0
  9  2  2  0
 10  2  1  0
 10 14  1  0
 11  3  1  0
 13 10  2  0
 14 12  1  0
 14  8  1  0
M  END
$$$$

     RDKit          3D

 19 20  0  0  0  0  0  0  0  0999 V2000
    8.5610  -35.2650  -36.3070 C   0  0  0  0  0  0  0  0  0  0  0  0
    8.3560  -34.6560  -33.8280 C   0  0  0  0  0  0  0  0  0  0  0  0
    3.4130  -34.7610  -37.9630 C   0  0  0  0  0  0  0  0  0  0  0  0
    3.4450  -34.2310  -39.3390 C   0  0  0  0  0  0  0  0  0  0  0  0
   11.9690  -33.4370  -31.3330 C   0  0  0  0  0  0  0  0  0  0  0  0
   14.6460  -33.2090  -33.9090 C   0  0  0  0  0  0  0  0  0  0  0  0
    9.7130  -34.3140  -33.9410 O   0  0  0  0  0  0  0  0  0  0  0  0
    4.9430  -34.4050  -37.0780 C   0  0  0  0  0  0  0  0  0  0  0  0
   10.8090  -33.8840  -32.0890 C   0  0  0  0  0  0  0  0  0  0  0  0
   15.7110  -32.9080  -34.3700 C   0  0  0  0  0  0  0  0  0  0  0  0
   13.2470  -33.2090  -32.0090 C   0  0  0  0  0  0  0  0  0  0  0  0
    5.7040  -35.7260  -36.7120 C   0  0  0  0  0  0  0  0  0  0  0  0
   13.3510  -33.4950  -33.3990 C   0  0  0  0  0  0  0  0  0  0  0  0
   12.2650  -33.9520  -34.1250 C   0  0  0  0  0  0  0  0  0  0  0  0
   11.0040  -34.1530  -33.4830 C   0  0  0  0  0  0  0  0  0  0  0  0
    7.7340  -35.1570  -35.1820 C   0  0  0  0  0  0  0  0  0  0  0  0
    3.7910  -33.5470  -37.1370 C   0  0  0  0  0  0  0  0  0  0  0  0
   11.9780  -33.1640  -30.0670 O   0  0  0  0  0  0  0  0  0  0  0  0
    6.4250  -35.4140  -35.3100 C   0  0  0  0  0  0  0  0  0  0  0  0
  1 16  1  0
  3  4  1  0
  3 17  1  0
  3  8  1  0
  5 18  1  0
  6 13  1  0
  7  2  1  0
  7 15  1  0
  8 12  1  0
  9  5  2  0
 10  6  3  0
 11  5  1  0
 12 19  1  0
 13 11  2  0
 14 15  2  0
 14 13  1  0
 15  9  1  0
 16  2  1  0
 17  8  1  0
 19 16  2  3
M  END
$$$$

     RDKit          3D

 18 19  0  0  0  0  0  0  0  0999 V2000
   12.4620  -32.9090  -31.8010 C   0  0  0  0  0  0  0  0  0  0  0  0
   14.4520  -34.1720  -34.2470 C   0  0  0  0  0  0  0  0  0  0  0  0
    7.7450  -34.2270  -34.3280 C   0  0  0  0  0  0  0  0  0  0  0  0
    5.1640  -35.6830  -35.5880 O   0  0  0  0  0  0  0  0  0  0  0  0
    5.3500  -33.8920  -34.6620 O   0  0  0  0  0  0  0  0  0  0  0  0
    7.2780  -35.2430  -34.4740 C   0  0  0  0  0  0  0  0  0  0  0  0
   13.3150  -33.8680  -33.5810 C   0  0  0  0  0  0  0  0  0  0  0  0
    8.6480  -33.7310  -33.9150 C   0  0  0  0  0  0  0  0  0  0  0  0
   12.0160  -34.2910  -33.8130 C   0  0  0  0  0  0  0  0  0  0  0  0
   10.9450  -33.9070  -33.0360 C   0  0  0  0  0  0  0  0  0  0  0  0
    9.5920  -34.3880  -33.3870 C   0  0  0  0  0  0  0  0  0  0  0  0
    9.3320  -35.6380  -33.1230 C   0  0  0  0  0  0  0  0  0  0  0  0
   12.7190  -32.3300  -30.5800 F   0  0  0  0  0  0  0  0  0  0  0  0
    5.8640  -34.9660  -34.9480 C   0  0  0  0  0  0  0  0  0  0  0  0
   11.1310  -33.4410  -31.9100 C   0  0  0  0  0  0  0  0  0  0  0  0
   13.4470  -32.9420  -32.5740 C   0  0  0  0  0  0  0  0  0  0  0  0
    8.1920  -36.1260  -33.8220 S   0  0  0  0  0  0  0  0  0  0  0  0
   10.0170  -36.2580  -32.2870 N   0  0  0  0  0  0  0  0  0  0  0  0
  1 13  1  0
  2  7  2  0
  3  8  2  0
  4 14  2  0
  6 14  1  0
  6  3  1  0
  6 17  1  0
  7 16  1  0
  8 11  1  0
  9  7  1  0
  9 10  1  0
 10 11  1  0
 10 15  1  0
 11 12  2  0
 12 18  1  0
 14  5  1  0
 15  1  1  0
 16  1  1  0
 17 12  1  0
M  END
$$$$

     RDKit          3D

 11 10  0  0  0  0  0  0  0  0999 V2000
    9.6270  -32.7120  -34.7470 C   0  0  0  0  0  0  0  0  0  0  0  0
   11.7740  -32.7610  -31.9270 O   0  0  0  0  0  0  0  0  0  0  0  0
    7.3350  -32.3810  -33.7520 C   0  0  0  0  0  0  0  0  0  0  0  0
    8.1020  -32.7930  -34.9600 C   0  0  0  0  0  0  0  0  0  0  0  0
   11.3570  -34.8610  -34.7080 C   0  0  0  0  0  0  0  0  0  0  0  0
   13.4100  -33.7540  -34.0410 C   0  0  0  0  0  0  0  0  0  0  0  0
   11.9320  -33.9710  -33.9290 C   0  0  0  0  0  0  0  0  0  0  0  0
    7.6260  -33.2440  -36.3160 C   0  0  0  0  0  0  0  0  0  0  0  0
   11.2690  -33.1430  -33.0330 C   0  0  0  0  0  0  0  0  0  0  0  0
    9.9030  -32.7480  -33.4070 C   0  0  0  0  0  0  0  0  0  0  0  0
   11.1800  -36.2800  -34.1500 C   0  0  0  0  0  0  0  0  0  0  0  0
  1 10  1  0
  4  1  1  0
  4  3  1  0
  5 11  1  0
  5  7  1  0
  7  6  1  0
  7  9  1  0
  8  4  1  0
  9  2  2  0
 10  9  1  0
M  END
$$$$

     RDKit          3D

 24 25  0  0  0  0  0  0  0  0999 V2000
   10.2380  -34.9420  -36.1580 C   0  0  0  0  0  0  0  0  0  0  0  0
    7.8450  -34.3460  -33.2910 C   0  0  0  0  0  0  0  0  0  0  0  0
    5.9010  -34.6590  -35.1070 O   0  0  0  0  0  0  0  0  0  0  0  0
    3.8120  -33.6690  -35.1400 C   0  0  0  0  0  0  0  0  0  0  0  0
    7.6610  -31.8020  -31.8430 C   0  0  0  0  0  0  0  0  0  0  0  0
    9.1640  -33.7990  -33.4310 O   0  0  0  0  0  0  0  0  0  0  0  0
    4.7090  -34.5090  -35.6940 C   0  0  0  0  0  0  0  0  0  0  0  0
   12.3120  -33.3680  -31.2430 C   0  0  0  0  0  0  0  0  0  0  0  0
   11.4270  -33.4550  -32.0080 C   0  0  0  0  0  0  0  0  0  0  0  0
   12.7410  -33.1670  -29.6250 C   0  0  0  0  0  0  0  0  0  0  0  0
   13.4770  -33.1590  -31.6240 C   0  0  0  0  0  0  0  0  0  0  0  0
    6.5700  -32.4210  -32.4890 C   0  0  0  0  0  0  0  0  0  0  0  0
   11.6210  -33.5150  -33.1220 C   0  0  0  0  0  0  0  0  0  0  0  0
    6.6790  -33.4420  -33.3030 C   0  0  0  0  0  0  0  0  0  0  0  0
   12.5850  -34.8930  -34.3740 C   0  0  0  0  0  0  0  0  0  0  0  0
   13.5860  -34.1600  -33.7480 C   0  0  0  0  0  0  0  0  0  0  0  0
    4.6650  -33.1740  -34.3310 C   0  0  0  0  0  0  0  0  0  0  0  0
   13.7710  -33.4540  -32.8850 C   0  0  0  0  0  0  0  0  0  0  0  0
   12.0630  -33.1780  -30.0400 C   0  0  0  0  0  0  0  0  0  0  0  0
    5.8820  -33.7980  -34.2040 C   0  0  0  0  0  0  0  0  0  0  0  0
    8.1030  -35.5790  -33.8830 O   0  0  0  0  0  0  0  0  0  0  0  0
   10.0470  -34.4240  -33.7770 C   0  0  0  0  0  0  0  0  0  0  0  0
   10.2710  -35.2540  -34.7300 C   0  0  0  0  0  0  0  0  0  0  0  0
   12.1100  -34.2830  -33.6710 C   0  0  0  0  0  0  0  0  0  0  0  0
  1 23  1  0
  3 20  1  0
  4 17  1  0
  6  2  1  0
  7  4  1  0
  7  3  1  0
  8 19  1  0
  9  8  2  0
 11  8  1  0
 12  5  1  0
 13 22  1  0
 13  9  1  0
 14  2  1  0
 14 12  1  0
 15 16  1  0
 15 24  1  0
 16 18  1  0
 17 20  1  0
 18 11  1  0
 19 10  1  0
 20 14  2  3
 21  2  2  0
 22 23  1  0
 22  6  1  0
 24 13  1  0
M  END
$$$$

     RDKit          3D

 17 19  0  0  0  0  0  0  0  0999 V2000
    6.8630  -31.7810  -31.7140 C   0  0  0  0  0  0  0  0  0  0  0  0
   11.3330  -32.5630  -32.1400 C   0  0  0  0  0  0  0  0  0  0  0  0
   10.6250  -34.1790  -33.5940 C   0  0  0  0  0  0  0  0  0  0  0  0
    7.4510  -35.2300  -34.9000 O   0  0  0  0  0  0  0  0  0  0  0  0
   12.5280  -33.3950  -32.5230 C   0  0  0  0  0  0  0  0  0  0  0  0
   12.0060  -34.2300  -33.5300 O   0  0  0  0  0  0  0  0  0  0  0  0
    8.4270  -34.5990  -34.2090 N   0  0  0  0  0  0  0  0  0  0  0  0
    6.0470  -32.4230  -32.5480 C   0  0  0  0  0  0  0  0  0  0  0  0
    9.6970  -34.9500  -34.2440 C   0  0  0  0  0  0  0  0  0  0  0  0
   13.6550  -32.5590  -32.9550 C   0  0  0  0  0  0  0  0  0  0  0  0
    6.5310  -33.3420  -33.4550 C   0  0  0  0  0  0  0  0  0  0  0  0
   10.2020  -33.1540  -32.6730 C   0  0  0  0  0  0  0  0  0  0  0  0
    8.7950  -32.9750  -32.5130 C   0  0  0  0  0  0  0  0  0  0  0  0
   14.3870  -33.0600  -33.8270 F   0  0  0  0  0  0  0  0  0  0  0  0
    8.2380  -32.0350  -31.6800 C   0  0  0  0  0  0  0  0  0  0  0  0
    7.8870  -33.6440  -33.3980 C   0  0  0  0  0  0  0  0  0  0  0  0
   10.1340  -36.1650  -34.9990 C   0  0  0  0  0  0  0  0  0  0  0  0
  1 15  2  0
  3  6  1  0
  3 12  1  0
  4  7  1  0
  5 10  1  0
  5  2  1  0
  6  5  1  0
  7 16  1  0
  8  1  1  0
  9  7  1  0
  9  3  2  0
 11  8  2  0
 12 13  2  0
 12  2  1  0
 13 15  1  0
 14 10  1  0
 16 11  1  0
 16 13  1  0
 17  9  1  0
M  END
$$$$

     RDKit          3D

 18 20  0  0  0  0  0  0  0  0999 V2000
    8.5430  -32.8880  -32.4120 C   0  0  0  0  0  0  0  0  0  0  0  0
   11.9030  -33.5130  -30.6500 N   0  0  0  0  0  0  0  0  0  0  0  0
    8.7420  -34.6370  -33.8290 C   0  0  0  0  0  0  0  0  0  0  0  0
   11.4500  -33.3310  -33.1460 C   0  0  0  0  0  0  0  0  0  0  0  0
   10.0520  -34.5360  -33.0260 C   0  0  0  0  0  0  0  0  0  0  0  0
    7.8870  -33.8450  -33.1480 O   0  0  0  0  0  0  0  0  0  0  0  0
    8.6120  -35.2040  -35.0300 C   0  0  0  0  0  0  0  0  0  0  0  0
    9.6050  -34.2310  -31.7340 C   0  0  0  0  0  0  0  0  0  0  0  0
   10.9250  -35.7250  -33.5960 C   0  0  0  0  0  0  0  0  0  0  0  0
   12.7820  -33.2440  -29.4920 C   0  0  0  0  0  0  0  0  0  0  0  0
   10.8310  -33.9460  -30.7900 C   0  0  0  0  0  0  0  0  0  0  0  0
    9.4760  -36.1490  -35.4710 N   0  0  0  0  0  0  0  0  0  0  0  0
    7.3990  -35.4820  -37.3290 C   0  0  0  0  0  0  0  0  0  0  0  0
   13.0550  -32.3140  -32.0860 O   0  0  0  0  0  0  0  0  0  0  0  0
    7.4540  -34.8530  -35.8820 N   0  0  0  0  0  0  0  0  0  0  0  0
    6.0940  -35.0940  -35.2480 C   0  0  0  0  0  0  0  0  0  0  0  0
   10.6690  -36.4360  -34.7150 C   0  0  0  0  0  0  0  0  0  0  0  0
   12.1770  -33.0840  -31.8640 C   0  0  0  0  0  0  0  0  0  0  0  0
  2 10  1  0
  3  7  1  0
  3  6  1  0
  3  5  1  0
  4  5  1  0
  4 18  1  0
  5  9  1  0
  5  8  1  0
  6  1  1  0
  8  1  1  0
  8 11  1  0
 11  2  1  0
 12  7  2  0
 12 17  1  0
 13 15  1  0
 14 18  2  0
 15 16  1  0
 15  7  1  0
 17  9  2  0
 18  2  1  0
M  END
$$$$

     RDKit          3D

 17 18  0  0  0  0  0  0  0  0999 V2000
   12.6060  -33.4210  -33.6480 C   0  0  0  0  0  0  0  0  0  0  0  0
   11.4970  -34.0200  -31.8100 N   0  0  0  0  0  0  0  0  0  0  0  0
    4.4630  -34.6420  -36.5420 O   0  0  0  0  0  0  0  0  0  0  0  0
   10.6310  -35.1130  -33.7830 C   0  0  0  0  0  0  0  0  0  0  0  0
    6.9480  -33.8010  -33.4050 C   0  0  0  0  0  0  0  0  0  0  0  0
   12.5960  -32.6370  -30.0510 C   0  0  0  0  0  0  0  0  0  0  0  0
   13.1790  -32.7300  -32.5410 C   0  0  0  0  0  0  0  0  0  0  0  0
   11.5870  -34.2100  -33.1050 C   0  0  0  0  0  0  0  0  0  0  0  0
    7.2210  -34.9530  -34.1960 C   0  0  0  0  0  0  0  0  0  0  0  0
    8.3440  -35.8340  -33.8660 C   0  0  0  0  0  0  0  0  0  0  0  0
   12.4170  -33.1340  -31.4750 C   0  0  0  0  0  0  0  0  0  0  0  0
   10.8630  -35.5320  -34.9360 O   0  0  0  0  0  0  0  0  0  0  0  0
    5.2510  -34.4340  -35.5140 C   0  0  0  0  0  0  0  0  0  0  0  0
    5.0260  -33.3110  -34.7380 C   0  0  0  0  0  0  0  0  0  0  0  0
    6.4410  -35.2010  -35.2270 C   0  0  0  0  0  0  0  0  0  0  0  0
    5.8920  -33.0280  -33.6640 C   0  0  0  0  0  0  0  0  0  0  0  0
    9.4530  -35.3660  -33.0130 C   0  0  0  0  0  0  0  0  0  0  0  0
  1  8  2  0
  1  7  1  0
  2 11  2  0
  3 13  1  0
  4  8  1  0
  4 17  1  0
  7 11  1  0
  8  2  1  0
  9 10  1  0
  9  5  2  0
 10 17  1  0
 11  6  1  0
 12  4  2  0
 13 15  2  0
 13 14  1  0
 14 16  2  0
 15  9  1  0
 16  5  1  0
M  END
$$$$

     RDKit          3D

 12 12  0  0  0  0  0  0  0  0999 V2000
    9.3240  -35.8330  -35.4770 C   0  0  0  0  0  0  0  0  0  0  0  0
   12.0460  -33.0830  -32.5830 C   0  0  0  0  0  0  0  0  0  0  0  0
    6.0990  -34.7450  -34.5940 C   0  0  0  0  0  0  0  0  0  0  0  0
   10.4340  -33.2220  -32.2830 C   0  0  0  0  0  0  0  0  0  0  0  0
    8.3230  -35.0080  -34.8420 C   0  0  0  0  0  0  0  0  0  0  0  0
   10.9620  -35.0300  -33.9160 C   0  0  0  0  0  0  0  0  0  0  0  0
    7.0480  -35.1100  -35.2310 O   0  0  0  0  0  0  0  0  0  0  0  0
   10.0270  -34.2210  -33.3040 C   0  0  0  0  0  0  0  0  0  0  0  0
    8.9240  -32.3910  -32.3950 O   0  0  0  0  0  0  0  0  0  0  0  0
   10.5550  -35.8870  -34.9740 C   0  0  0  0  0  0  0  0  0  0  0  0
    8.6720  -34.2420  -33.7570 C   0  0  0  0  0  0  0  0  0  0  0  0
   10.4790  -33.6440  -30.7320 C   0  0  0  0  0  0  0  0  0  0  0  0
  1 10  2  0
  1  5  1  0
  2  4  1  0
  4 12  1  0
  5 11  2  0
  6  8  2  0
  7  5  1  0
  7  3  1  0
  8  4  1  0
  9  4  1  0
 10  6  1  0
 11  8  1  0
M  END
$$$$

     RDKit          3D

 12 12  0  0  0  0  0  0  0  0999 V2000
   11.0020  -32.9250  -31.0560 C   0  0  0  0  0  0  0  0  0  0  0  0
    9.9110  -33.4130  -33.2090 C   0  0  0  0  0  0  0  0  0  0  0  0
   11.0420  -32.6730  -29.9630 N   0  0  0  0  0  0  0  0  0  0  0  0
    6.2080  -34.6730  -34.6090 C   0  0  0  0  0  0  0  0  0  0  0  0
   10.7980  -34.9380  -34.6630 C   0  0  0  0  0  0  0  0  0  0  0  0
    8.4830  -34.5610  -34.9660 C   0  0  0  0  0  0  0  0  0  0  0  0
    8.4450  -34.3850  -36.2120 O   0  0  0  0  0  0  0  0  0  0  0  0
   10.9530  -33.3690  -32.3840 C   0  0  0  0  0  0  0  0  0  0  0  0
    9.7080  -34.2260  -34.2490 C   0  0  0  0  0  0  0  0  0  0  0  0
    7.4120  -35.5370  -34.4870 C   0  0  0  0  0  0  0  0  0  0  0  0
   11.9430  -34.7820  -34.0380 C   0  0  0  0  0  0  0  0  0  0  0  0
   12.0840  -33.9610  -32.9350 C   0  0  0  0  0  0  0  0  0  0  0  0
  1  3  3  0
  2  8  1  0
  4 10  1  0
  5  9  1  0
  5 11  2  0
  6 10  1  0
  6  9  1  0
  7  6  2  0
  8  1  1  0
  9  2  2  0
 11 12  1  0
 12  8  2  0
M  END
$$$$
