
     RDKit          3D

 27 29  0  0  0  0  0  0  0  0999 V2000
  -10.7850   -6.3840   28.8190 O   0  0  0  0  0  0  0  0  0  0  0  0
   -3.1350   -5.0770   27.6980 O   0  0  0  0  0  0  0  0  0  0  0  0
   -9.3250   -4.3850   28.7260 O   0  0  0  0  0  0  0  0  0  0  0  0
  -12.0120   -0.1830   25.5880 C   0  0  0  0  0  0  0  0  0  0  0  0
  -13.5320   -3.6640   26.6270 Cl  0  0  0  0  0  0  0  0  0  0  0  0
   -5.7770   -6.9230   25.6070 C   0  0  0  0  0  0  0  0  0  0  0  0
   -6.2190   -6.6850   24.1490 C   0  0  0  0  0  0  0  0  0  0  0  0
  -12.9350    1.8660   24.8920 O   0  0  0  0  0  0  0  0  0  0  0  0
  -13.1200    0.5480   25.2710 C   0  0  0  0  0  0  0  0  0  0  0  0
  -13.3590   -2.0550   26.1240 C   0  0  0  0  0  0  0  0  0  0  0  0
  -12.1170   -1.4890   26.0470 C   0  0  0  0  0  0  0  0  0  0  0  0
   -9.8630   -5.5370   30.9000 O   0  0  0  0  0  0  0  0  0  0  0  0
  -11.6070   -4.3140   29.5990 O   0  0  0  0  0  0  0  0  0  0  0  0
   -5.9500   -4.1990   29.5400 C   0  0  0  0  0  0  0  0  0  0  0  0
   -4.2080   -4.2270   27.7340 C   0  0  0  0  0  0  0  0  0  0  0  0
   -8.1120   -5.8470   26.7220 O   0  0  0  0  0  0  0  0  0  0  0  0
  -14.3970   -0.0620   25.3630 C   0  0  0  0  0  0  0  0  0  0  0  0
  -14.4970   -1.4000   25.8440 C   0  0  0  0  0  0  0  0  0  0  0  0
   -5.4520   -5.7120   26.3450 C   0  0  0  0  0  0  0  0  0  0  0  0
   -8.0800   -5.1090   28.9200 C   0  0  0  0  0  0  0  0  0  0  0  0
   -4.0170   -5.3250   26.6880 C   0  0  0  0  0  0  0  0  0  0  0  0
   -7.2400   -4.3190   29.7460 C   0  0  0  0  0  0  0  0  0  0  0  0
  -10.4330   -5.1800   29.5360 S   0  0  0  0  0  0  0  0  0  0  0  0
  -10.8070    0.4370   25.4470 O   0  0  0  0  0  0  0  0  0  0  0  0
   -7.4990   -5.4890   27.6490 C   0  0  0  0  0  0  0  0  0  0  0  0
   -6.1440   -5.4580   27.6460 N   0  0  0  0  0  0  0  0  0  0  0  0
   -5.2390   -4.9940   28.5890 C   0  0  0  0  0  0  0  0  0  0  0  0
  1 23  1  0
  3 23  1  0
  4 11  1  0
  7  6  1  0
  8  9  1  0
  9 17  1  0
  9  4  2  0
 10  5  1  0
 11 10  2  0
 14 22  2  0
 15  2  1  0
 15 27  1  0
 16 25  2  0
 17 18  2  0
 18 10  1  0
 19  6  1  0
 19 21  1  0
 19 26  1  0
 20  3  1  0
 20 22  1  0
 21  2  1  0
 21 15  1  0
 23 13  1  0
 23 12  1  0
 24  4  1  0
 25 20  1  0
 26 25  1  0
 26 27  1  0
 27 14  1  0
M  END
$$$$

     RDKit          3D

 27 29  0  0  0  0  0  0  0  0999 V2000
  -10.5860   -5.0880   29.6460 C   0  0  0  0  0  0  0  0  0  0  0  0
   -3.0480   -3.7580   28.6650 C   0  0  0  0  0  0  0  0  0  0  0  0
  -13.0530    1.7200   24.7410 F   0  0  0  0  0  0  0  0  0  0  0  0
   -5.7550   -6.0440   25.2690 O   0  0  0  0  0  0  0  0  0  0  0  0
  -10.6130   -2.0960   28.1250 C   0  0  0  0  0  0  0  0  0  0  0  0
   -9.5270   -4.4350   28.7760 C   0  0  0  0  0  0  0  0  0  0  0  0
  -10.4600   -4.4690   31.0870 C   0  0  0  0  0  0  0  0  0  0  0  0
   -8.1260   -5.0570   28.8970 C   0  0  0  0  0  0  0  0  0  0  0  0
   -8.1200   -5.7760   26.7330 O   0  0  0  0  0  0  0  0  0  0  0  0
   -9.4810   -3.0730   28.4540 N   0  0  0  0  0  0  0  0  0  0  0  0
  -10.8930   -2.1140   26.6370 C   0  0  0  0  0  0  0  0  0  0  0  0
   -5.4920   -5.6720   26.3450 C   0  0  0  0  0  0  0  0  0  0  0  0
   -6.1370   -5.4700   27.5920 N   0  0  0  0  0  0  0  0  0  0  0  0
   -7.2250   -4.2940   29.7810 C   0  0  0  0  0  0  0  0  0  0  0  0
   -5.9130   -4.2140   29.6000 C   0  0  0  0  0  0  0  0  0  0  0  0
   -4.2340   -4.2020   27.7800 C   0  0  0  0  0  0  0  0  0  0  0  0
   -5.2520   -4.9850   28.6480 C   0  0  0  0  0  0  0  0  0  0  0  0
  -14.3830   -0.0710   25.3440 C   0  0  0  0  0  0  0  0  0  0  0  0
  -13.5860   -3.6860   26.6060 Cl  0  0  0  0  0  0  0  0  0  0  0  0
   -4.0820   -5.3310   26.7570 C   0  0  0  0  0  0  0  0  0  0  0  0
   -7.5100   -5.4300   27.7170 C   0  0  0  0  0  0  0  0  0  0  0  0
  -14.5070   -1.3600   25.7300 C   0  0  0  0  0  0  0  0  0  0  0  0
  -10.5070   -6.6690   29.6830 C   0  0  0  0  0  0  0  0  0  0  0  0
  -13.3260   -2.0990   26.0940 C   0  0  0  0  0  0  0  0  0  0  0  0
  -11.9660   -0.1090   25.6030 C   0  0  0  0  0  0  0  0  0  0  0  0
  -13.1320    0.4900   25.2640 C   0  0  0  0  0  0  0  0  0  0  0  0
  -12.1070   -1.4690   26.1600 C   0  0  0  0  0  0  0  0  0  0  0  0
  1 23  1  0
  1  7  1  0
  3 26  1  0
  4 12  2  0
  5 10  1  0
  6 10  1  0
  6  1  1  0
  8  6  1  0
  8 14  1  0
  9 21  2  0
 11  5  1  0
 12 20  1  0
 12 13  1  0
 13 21  1  0
 13 17  1  0
 15 14  2  0
 16 17  1  0
 16  2  1  0
 17 15  1  0
 18 22  1  0
 20 16  1  0
 21  8  1  0
 22 24  2  0
 24 27  1  0
 24 19  1  0
 25 27  2  0
 26 18  2  0
 26 25  1  0
 27 11  1  0
M  END
$$$$

     RDKit          3D

 27 30  0  0  0  0  0  0  0  0999 V2000
   -7.4910   -4.5720   31.3880 C   0  0  0  0  0  0  0  0  0  0  0  0
   -5.5020   -7.1470   25.9710 C   0  0  0  0  0  0  0  0  0  0  0  0
   -4.2260   -4.1910   27.8030 C   0  0  0  0  0  0  0  0  0  0  0  0
   -8.0910   -5.1380   28.9280 C   0  0  0  0  0  0  0  0  0  0  0  0
   -8.8360   -5.2390   31.8190 C   0  0  0  0  0  0  0  0  0  0  0  0
   -5.9460   -4.7550   25.2510 C   0  0  0  0  0  0  0  0  0  0  0  0
  -10.7960   -2.1320   26.3940 C   0  0  0  0  0  0  0  0  0  0  0  0
   -9.3190   -2.7790   30.1140 O   0  0  0  0  0  0  0  0  0  0  0  0
  -10.7700    0.4100   25.3790 F   0  0  0  0  0  0  0  0  0  0  0  0
   -9.4510   -3.4260   27.8700 C   0  0  0  0  0  0  0  0  0  0  0  0
  -13.5160   -3.6780   26.6200 Cl  0  0  0  0  0  0  0  0  0  0  0  0
   -7.2810   -4.3000   29.7850 C   0  0  0  0  0  0  0  0  0  0  0  0
   -8.1310   -5.7760   26.7260 O   0  0  0  0  0  0  0  0  0  0  0  0
   -5.8960   -4.1680   29.5940 C   0  0  0  0  0  0  0  0  0  0  0  0
   -5.1920   -4.9670   28.6540 C   0  0  0  0  0  0  0  0  0  0  0  0
   -7.4720   -5.4620   27.6640 C   0  0  0  0  0  0  0  0  0  0  0  0
   -4.0030   -5.3220   26.7130 C   0  0  0  0  0  0  0  0  0  0  0  0
   -6.1220   -5.4690   27.5840 N   0  0  0  0  0  0  0  0  0  0  0  0
  -12.1330   -1.4750   26.0560 C   0  0  0  0  0  0  0  0  0  0  0  0
  -12.0080   -0.1590   25.5830 C   0  0  0  0  0  0  0  0  0  0  0  0
  -14.3900   -0.0370   25.3480 C   0  0  0  0  0  0  0  0  0  0  0  0
   -5.4470   -5.7360   26.2860 C   0  0  0  0  0  0  0  0  0  0  0  0
  -13.2220    0.5460   25.2530 C   0  0  0  0  0  0  0  0  0  0  0  0
  -13.3210   -2.0710   26.1410 C   0  0  0  0  0  0  0  0  0  0  0  0
  -14.5100   -1.3990   25.7810 C   0  0  0  0  0  0  0  0  0  0  0  0
  -10.1870   -2.1030   27.5890 N   0  0  0  0  0  0  0  0  0  0  0  0
   -8.5210   -3.6260   29.1240 C   0  0  0  0  0  0  0  0  0  0  0  0
  1  5  1  0
  2 22  1  0
  4 16  1  0
  4 27  1  0
  4 12  1  0
  6 22  1  0
  7 26  1  0
  9 20  1  0
 10 27  1  0
 12  1  1  0
 13 16  2  0
 14 12  1  0
 15  3  1  0
 15 14  1  0
 17  3  1  0
 18 16  1  0
 18 15  1  0
 19 24  1  0
 19  7  1  0
 20 19  2  0
 21 25  1  0
 22 17  1  0
 22 18  1  0
 23 21  2  0
 23 20  1  0
 24 11  1  0
 25 24  2  0
 26 10  1  0
 27 12  1  0
 27  8  1  0
M  END
$$$$

     RDKit          3D

 27 30  0  0  0  0  0  0  0  0999 V2000
  -10.9490   -2.2490   26.5910 C   0  0  0  0  0  0  0  0  0  0  0  0
   -5.2130   -5.0030   28.6180 C   0  0  0  0  0  0  0  0  0  0  0  0
  -12.2990   -3.9010   27.8700 C   0  0  0  0  0  0  0  0  0  0  0  0
  -11.1410   -3.0170   27.8740 C   0  0  0  0  0  0  0  0  0  0  0  0
   -4.1820   -6.4360   26.4100 C   0  0  0  0  0  0  0  0  0  0  0  0
   -9.6550   -4.9150   28.9170 C   0  0  0  0  0  0  0  0  0  0  0  0
   -8.1550   -5.8230   26.7200 O   0  0  0  0  0  0  0  0  0  0  0  0
  -10.0220   -3.4970   28.5790 N   0  0  0  0  0  0  0  0  0  0  0  0
  -10.3960   -4.1910   30.9040 F   0  0  0  0  0  0  0  0  0  0  0  0
   -5.8990   -4.2290   29.6080 C   0  0  0  0  0  0  0  0  0  0  0  0
   -7.2740   -4.3310   29.7560 C   0  0  0  0  0  0  0  0  0  0  0  0
  -11.4020   -5.9970   30.1590 F   0  0  0  0  0  0  0  0  0  0  0  0
  -10.2270   -5.3300   30.2670 C   0  0  0  0  0  0  0  0  0  0  0  0
   -9.3100   -6.0800   30.9000 F   0  0  0  0  0  0  0  0  0  0  0  0
   -8.1330   -5.0490   28.9100 C   0  0  0  0  0  0  0  0  0  0  0  0
  -13.5470   -3.6940   26.6360 Cl  0  0  0  0  0  0  0  0  0  0  0  0
  -13.1680    0.5060   25.3130 C   0  0  0  0  0  0  0  0  0  0  0  0
  -14.3800   -0.0490   25.3370 C   0  0  0  0  0  0  0  0  0  0  0  0
   -7.5240   -5.4370   27.7000 C   0  0  0  0  0  0  0  0  0  0  0  0
  -14.5010   -1.3950   25.7230 C   0  0  0  0  0  0  0  0  0  0  0  0
  -13.3560   -2.1040   26.1230 C   0  0  0  0  0  0  0  0  0  0  0  0
  -12.1270   -1.4590   26.1280 C   0  0  0  0  0  0  0  0  0  0  0  0
  -12.0190   -0.1560   25.5980 C   0  0  0  0  0  0  0  0  0  0  0  0
   -6.1310   -5.5630   27.5830 N   0  0  0  0  0  0  0  0  0  0  0  0
   -5.5050   -5.7460   26.3590 C   0  0  0  0  0  0  0  0  0  0  0  0
   -4.0370   -5.2830   26.6930 C   0  0  0  0  0  0  0  0  0  0  0  0
   -4.2500   -4.2120   27.7830 C   0  0  0  0  0  0  0  0  0  0  0  0
  1  4  1  0
  2 27  1  0
  2 10  1  0
  4  3  1  0
  4  8  1  0
  6  8  1  0
  6 13  1  0
  7 19  2  0
 10 11  2  0
 12 13  1  0
 13 14  1  0
 13  9  1  0
 15  6  1  0
 15 11  1  0
 17 18  2  0
 17 23  1  0
 18 20  1  0
 19 15  1  0
 20 21  2  0
 21 22  1  0
 21 16  1  0
 22  1  1  0
 23 22  2  0
 24 19  1  0
 24  2  1  0
 25  5  1  0
 25 26  1  0
 25 24  1  0
 26  5  1  0
 26 27  1  0
M  END
$$$$

     RDKit          3D

 27 30  0  0  0  0  0  0  0  0999 V2000
   -5.9520   -5.0380   25.0880 C   0  0  0  0  0  0  0  0  0  0  0  0
   -7.2620   -4.2260   29.7210 C   0  0  0  0  0  0  0  0  0  0  0  0
   -9.0360   -3.9850   28.5370 O   0  0  0  0  0  0  0  0  0  0  0  0
  -10.3760   -3.6830   28.9160 C   0  0  0  0  0  0  0  0  0  0  0  0
  -13.1250    0.5670   25.2550 C   0  0  0  0  0  0  0  0  0  0  0  0
  -13.3360   -2.0920   26.1360 C   0  0  0  0  0  0  0  0  0  0  0  0
  -12.0950   -1.4680   26.1010 C   0  0  0  0  0  0  0  0  0  0  0  0
  -11.9960   -0.1750   25.5870 C   0  0  0  0  0  0  0  0  0  0  0  0
  -11.2740   -3.3200   27.7450 C   0  0  0  0  0  0  0  0  0  0  0  0
   -5.4790   -6.4640   28.6390 C   0  0  0  0  0  0  0  0  0  0  0  0
  -11.0000   -2.0950   26.9350 C   0  0  0  0  0  0  0  0  0  0  0  0
   -5.4710   -5.6740   26.3210 C   0  0  0  0  0  0  0  0  0  0  0  0
   -5.9100   -4.1740   29.6150 C   0  0  0  0  0  0  0  0  0  0  0  0
   -8.1510   -5.8170   26.7350 O   0  0  0  0  0  0  0  0  0  0  0  0
   -4.2440   -4.2060   27.8240 C   0  0  0  0  0  0  0  0  0  0  0  0
   -8.1140   -5.0410   28.9230 C   0  0  0  0  0  0  0  0  0  0  0  0
   -8.5310   -5.4330   31.3880 O   0  0  0  0  0  0  0  0  0  0  0  0
   -7.6180   -4.3820   31.2290 C   0  0  0  0  0  0  0  0  0  0  0  0
  -12.4650   -4.0420   27.3970 C   0  0  0  0  0  0  0  0  0  0  0  0
   -6.5840   -5.9090   24.0310 C   0  0  0  0  0  0  0  0  0  0  0  0
  -13.5410   -3.6990   26.6190 Cl  0  0  0  0  0  0  0  0  0  0  0  0
   -5.2160   -4.9800   28.6400 C   0  0  0  0  0  0  0  0  0  0  0  0
   -6.1570   -5.4430   27.6170 N   0  0  0  0  0  0  0  0  0  0  0  0
   -7.4750   -5.4940   27.6790 C   0  0  0  0  0  0  0  0  0  0  0  0
  -14.3640   -0.0950   25.3560 C   0  0  0  0  0  0  0  0  0  0  0  0
  -14.5090   -1.3890   25.7500 C   0  0  0  0  0  0  0  0  0  0  0  0
   -4.0730   -5.2910   26.7160 C   0  0  0  0  0  0  0  0  0  0  0  0
  2 18  1  0
  3  4  1  0
  5 25  2  0
  5  8  1  0
  7  6  1  0
  7 11  1  0
  8  7  2  0
  9  4  1  0
 10 22  1  0
 11  9  1  0
 12  1  1  0
 12 27  1  0
 12 23  1  0
 13  2  1  0
 14 24  2  0
 16  3  1  0
 16  2  1  0
 18 17  1  0
 19  9  2  3
 20  1  1  0
 21 19  1  0
 22 15  1  0
 22 13  1  0
 23 24  1  0
 23 10  1  0
 23 22  1  0
 24 16  1  0
 25 26  1  0
 26  6  2  0
 27 15  1  0
M  END
$$$$

     RDKit          3D

 27 29  0  0  0  0  0  0  0  0999 V2000
   -6.1520   -5.4780   27.6070 N   0  0  0  0  0  0  0  0  0  0  0  0
   -4.1920   -4.2360   27.7750 C   0  0  0  0  0  0  0  0  0  0  0  0
   -5.2010   -4.9880   28.5760 C   0  0  0  0  0  0  0  0  0  0  0  0
   -4.0030   -5.2640   26.7040 C   0  0  0  0  0  0  0  0  0  0  0  0
   -7.5050   -5.4160   27.7420 C   0  0  0  0  0  0  0  0  0  0  0  0
   -8.1800   -5.7880   26.7490 O   0  0  0  0  0  0  0  0  0  0  0  0
   -8.1380   -5.0950   28.9370 C   0  0  0  0  0  0  0  0  0  0  0  0
  -12.0920   -3.9230   27.1080 O   0  0  0  0  0  0  0  0  0  0  0  0
  -14.5270   -1.3450   25.7220 C   0  0  0  0  0  0  0  0  0  0  0  0
   -6.6190   -7.3800   25.1310 O   0  0  0  0  0  0  0  0  0  0  0  0
  -10.3250   -5.8560   29.8330 C   0  0  0  0  0  0  0  0  0  0  0  0
  -11.6100   -3.9870   28.5050 C   0  0  0  0  0  0  0  0  0  0  0  0
  -11.2260   -5.1010   30.7720 C   0  0  0  0  0  0  0  0  0  0  0  0
   -9.4830   -4.9760   29.0260 N   0  0  0  0  0  0  0  0  0  0  0  0
  -10.1320   -3.8870   28.5540 C   0  0  0  0  0  0  0  0  0  0  0  0
   -5.0800   -6.1830   24.1330 O   0  0  0  0  0  0  0  0  0  0  0  0
  -12.0640   -1.4940   26.0720 C   0  0  0  0  0  0  0  0  0  0  0  0
   -5.7510   -6.4680   25.1520 C   0  0  0  0  0  0  0  0  0  0  0  0
  -13.1710    0.5170   25.3090 C   0  0  0  0  0  0  0  0  0  0  0  0
  -11.9910   -0.1610   25.6290 C   0  0  0  0  0  0  0  0  0  0  0  0
  -13.3980   -2.0800   26.0760 C   0  0  0  0  0  0  0  0  0  0  0  0
  -14.4490   -0.0890   25.3670 C   0  0  0  0  0  0  0  0  0  0  0  0
  -13.5600   -3.7120   26.6280 Cl  0  0  0  0  0  0  0  0  0  0  0  0
   -5.4690   -5.7170   26.3050 C   0  0  0  0  0  0  0  0  0  0  0  0
  -12.0900   -4.1330   30.0200 C   0  0  0  0  0  0  0  0  0  0  0  0
   -5.9540   -4.1420   29.5820 C   0  0  0  0  0  0  0  0  0  0  0  0
   -7.2630   -4.2550   29.7520 C   0  0  0  0  0  0  0  0  0  0  0  0
  1  5  1  0
  1  3  1  0
  3  2  1  0
  3 26  1  0
  4  2  1  0
  5  7  1  0
  6  5  2  0
  7 14  1  0
  7 27  1  0
  9 21  1  0
 10 18  1  0
 11 13  1  0
 12  8  1  0
 12 15  1  0
 12 25  1  0
 14 15  1  0
 14 11  1  0
 16 18  2  0
 17 21  2  0
 19 22  1  0
 19 20  2  0
 20 17  1  0
 22  9  2  0
 23  8  1  0
 24 18  1  0
 24  4  1  0
 24  1  1  0
 25 13  1  0
 26 27  2  0
M  END
$$$$

     RDKit          3D

 27 29  0  0  0  0  0  0  0  0999 V2000
   -9.8930   -2.2480   27.5910 C   0  0  0  0  0  0  0  0  0  0  0  0
   -8.0610   -2.7380   29.5250 C   0  0  0  0  0  0  0  0  0  0  0  0
   -5.4690   -5.6910   26.2900 C   0  0  0  0  0  0  0  0  0  0  0  0
   -2.6870   -4.3390   29.6170 O   0  0  0  0  0  0  0  0  0  0  0  0
   -1.9300   -3.6140   27.6510 O   0  0  0  0  0  0  0  0  0  0  0  0
  -10.8370    0.4300   25.4710 O   0  0  0  0  0  0  0  0  0  0  0  0
  -13.1330    0.5560   25.2840 C   0  0  0  0  0  0  0  0  0  0  0  0
  -13.3510   -2.0370   26.1140 C   0  0  0  0  0  0  0  0  0  0  0  0
  -11.9620   -0.1300   25.6020 C   0  0  0  0  0  0  0  0  0  0  0  0
  -12.0850   -1.4510   26.1050 C   0  0  0  0  0  0  0  0  0  0  0  0
  -14.5240   -1.3860   25.8680 C   0  0  0  0  0  0  0  0  0  0  0  0
  -14.4400   -0.0320   25.3630 C   0  0  0  0  0  0  0  0  0  0  0  0
  -10.9330   -2.0870   26.8260 C   0  0  0  0  0  0  0  0  0  0  0  0
   -8.1580   -6.3470   29.9200 C   0  0  0  0  0  0  0  0  0  0  0  0
   -4.0490   -5.3510   26.7110 C   0  0  0  0  0  0  0  0  0  0  0  0
  -13.5220   -3.6730   26.6800 Cl  0  0  0  0  0  0  0  0  0  0  0  0
   -6.1230   -5.4470   27.6360 N   0  0  0  0  0  0  0  0  0  0  0  0
   -2.9240   -4.0290   28.4590 C   0  0  0  0  0  0  0  0  0  0  0  0
   -5.9060   -4.1840   29.5970 C   0  0  0  0  0  0  0  0  0  0  0  0
   -8.0930   -5.7710   26.7050 O   0  0  0  0  0  0  0  0  0  0  0  0
   -7.2970   -4.3040   29.8030 C   0  0  0  0  0  0  0  0  0  0  0  0
  -13.0640    1.7560   24.6430 O   0  0  0  0  0  0  0  0  0  0  0  0
   -7.4420   -5.4580   27.7470 C   0  0  0  0  0  0  0  0  0  0  0  0
   -5.2020   -5.0170   28.6580 C   0  0  0  0  0  0  0  0  0  0  0  0
   -8.1130   -5.0850   28.9840 C   0  0  0  0  0  0  0  0  0  0  0  0
   -8.6000   -2.5380   28.2000 C   0  0  0  0  0  0  0  0  0  0  0  0
   -4.2450   -4.1750   27.8210 C   0  0  0  0  0  0  0  0  0  0  0  0
  1 26  1  0
  3 15  1  0
  3 17  1  0
  5 18  2  0
  6  9  2  0
  7 12  2  0
  7  9  1  0
  8 16  1  0
  9 10  1  0
 10  8  1  0
 10 13  1  0
 11  8  2  0
 12 11  1  0
 13  1  3  0
 15 27  1  0
 17 23  1  0
 17 24  1  0
 18  4  1  0
 19 21  1  0
 20 23  2  0
 21  2  1  0
 22  7  1  0
 23 25  1  0
 24 19  1  0
 25 21  1  0
 25 14  1  0
 26  2  1  0
 27 18  1  0
 27 24  1  0
M  END
$$$$

     RDKit          3D

 27 29  0  0  0  0  0  0  0  0999 V2000
   -5.9080   -4.2470   29.6190 C   0  0  0  0  0  0  0  0  0  0  0  0
   -8.3150    3.2550   26.7770 N   0  0  0  0  0  0  0  0  0  0  0  0
  -10.7550    0.3930   25.3960 O   0  0  0  0  0  0  0  0  0  0  0  0
   -8.9430    3.7280   25.4740 C   0  0  0  0  0  0  0  0  0  0  0  0
  -10.9920   -2.1710   26.4320 F   0  0  0  0  0  0  0  0  0  0  0  0
   -9.2920   -5.8260   29.5110 C   0  0  0  0  0  0  0  0  0  0  0  0
  -10.4680    1.7480   25.8570 C   0  0  0  0  0  0  0  0  0  0  0  0
   -7.9280    4.4560   24.9260 O   0  0  0  0  0  0  0  0  0  0  0  0
   -9.3850    3.0020   27.6870 C   0  0  0  0  0  0  0  0  0  0  0  0
   -9.9260    1.6580   27.2230 C   0  0  0  0  0  0  0  0  0  0  0  0
   -9.5510    2.4570   24.8790 C   0  0  0  0  0  0  0  0  0  0  0  0
  -11.9740   -0.1870   25.5780 C   0  0  0  0  0  0  0  0  0  0  0  0
  -12.1100   -1.5130   26.0510 C   0  0  0  0  0  0  0  0  0  0  0  0
  -13.3700   -2.0870   26.0950 C   0  0  0  0  0  0  0  0  0  0  0  0
   -7.2480   -4.3100   29.7650 C   0  0  0  0  0  0  0  0  0  0  0  0
   -4.2400   -4.1530   27.7840 C   0  0  0  0  0  0  0  0  0  0  0  0
   -5.2590   -4.9970   28.6500 C   0  0  0  0  0  0  0  0  0  0  0  0
   -8.0990   -5.0670   28.9260 C   0  0  0  0  0  0  0  0  0  0  0  0
   -8.1070   -5.8190   26.7320 O   0  0  0  0  0  0  0  0  0  0  0  0
  -14.4440   -0.0800   25.3310 C   0  0  0  0  0  0  0  0  0  0  0  0
  -13.5750   -3.6990   26.6690 Cl  0  0  0  0  0  0  0  0  0  0  0  0
  -13.1380    0.5240   25.2420 C   0  0  0  0  0  0  0  0  0  0  0  0
  -14.5380   -1.3860   25.7700 C   0  0  0  0  0  0  0  0  0  0  0  0
   -6.1380   -5.5040   27.6030 N   0  0  0  0  0  0  0  0  0  0  0  0
   -5.4410   -5.7140   26.2750 C   0  0  0  0  0  0  0  0  0  0  0  0
   -4.0040   -5.2980   26.7230 C   0  0  0  0  0  0  0  0  0  0  0  0
   -7.5210   -5.4950   27.7100 C   0  0  0  0  0  0  0  0  0  0  0  0
  1 15  2  0
  2  9  1  0
  3 12  1  0
  4  8  1  0
  4  2  1  0
  7  3  1  0
  7 10  1  0
 10  9  1  0
 11  4  1  0
 11  7  1  0
 12 13  1  0
 13 14  2  0
 13  5  1  0
 14 21  1  0
 17 16  1  0
 17  1  1  0
 18  6  1  0
 18 15  1  0
 19 27  2  0
 20 23  2  0
 22 20  1  0
 22 12  2  0
 23 14  1  0
 24 27  1  0
 24 17  1  0
 25 26  1  0
 25 24  1  0
 26 16  1  0
 27 18  1  0
M  END
$$$$

     RDKit          3D

 27 28  0  0  0  0  0  0  0  0999 V2000
  -10.8570   -2.0880   26.7720 C   0  0  0  0  0  0  0  0  0  0  0  0
  -15.7640   -1.9940   25.8110 O   0  0  0  0  0  0  0  0  0  0  0  0
  -10.0210   -4.0520   27.9190 N   0  0  0  0  0  0  0  0  0  0  0  0
   -8.1320   -5.1280   28.9350 C   0  0  0  0  0  0  0  0  0  0  0  0
   -4.0350   -5.3090   26.6760 C   0  0  0  0  0  0  0  0  0  0  0  0
   -6.1680   -5.4820   27.5950 N   0  0  0  0  0  0  0  0  0  0  0  0
   -7.4890   -5.4950   27.6610 C   0  0  0  0  0  0  0  0  0  0  0  0
   -5.2490   -4.9530   28.6470 C   0  0  0  0  0  0  0  0  0  0  0  0
   -5.9440   -4.2130   29.5960 C   0  0  0  0  0  0  0  0  0  0  0  0
   -8.1590   -5.8050   26.7420 O   0  0  0  0  0  0  0  0  0  0  0  0
   -4.2800   -4.2670   27.7840 C   0  0  0  0  0  0  0  0  0  0  0  0
  -11.9950   -0.1230   25.6460 C   0  0  0  0  0  0  0  0  0  0  0  0
  -13.5300   -3.6510   26.6670 Cl  0  0  0  0  0  0  0  0  0  0  0  0
  -14.5140   -1.3680   25.7740 C   0  0  0  0  0  0  0  0  0  0  0  0
  -14.3620   -0.0910   25.3750 C   0  0  0  0  0  0  0  0  0  0  0  0
   -5.4190   -5.7080   26.3270 C   0  0  0  0  0  0  0  0  0  0  0  0
  -13.0120    1.7050   24.6550 O   0  0  0  0  0  0  0  0  0  0  0  0
   -9.5940   -4.8140   29.0750 C   0  0  0  0  0  0  0  0  0  0  0  0
   -7.2740   -4.2910   29.7850 C   0  0  0  0  0  0  0  0  0  0  0  0
  -12.0850    2.6200   25.1300 C   0  0  0  0  0  0  0  0  0  0  0  0
  -11.0170   -3.0690   27.8520 C   0  0  0  0  0  0  0  0  0  0  0  0
  -13.1430    0.4960   25.2430 C   0  0  0  0  0  0  0  0  0  0  0  0
  -12.0290   -1.5270   26.0640 C   0  0  0  0  0  0  0  0  0  0  0  0
  -13.3010   -2.0850   26.1280 C   0  0  0  0  0  0  0  0  0  0  0  0
  -10.2960   -6.1660   29.3840 C   0  0  0  0  0  0  0  0  0  0  0  0
  -13.9470   -4.7920   26.8360 C   0  0  0  0  0  0  0  0  0  0  0  0
   -9.4890   -1.6550   26.2850 C   0  0  0  0  0  0  0  0  0  0  0  0
  1 27  1  0
  1 21  1  0
  3 18  1  0
  4 18  1  0
  4 19  1  0
  5 11  1  0
  6  7  1  0
  6  8  1  0
  7  4  1  0
  8 11  1  0
  8  9  1  0
  9 19  2  0
 10  7  2  0
 12 23  1  0
 13 26  1  0
 14  2  1  0
 14 24  1  0
 15 14  2  0
 16  5  1  0
 16  6  1  0
 17 20  1  0
 17 22  1  0
 18 25  1  0
 21  3  1  0
 22 15  1  0
 22 12  2  0
 23 24  2  0
 23  1  1  0
M  END
$$$$

     RDKit          3D

 27 30  0  0  0  0  0  0  0  0999 V2000
  -11.1880   -2.5400   28.4110 C   0  0  0  0  0  0  0  0  0  0  0  0
   -8.1510   -5.8000   26.7300 O   0  0  0  0  0  0  0  0  0  0  0  0
  -10.2630   -3.6590   28.9730 C   0  0  0  0  0  0  0  0  0  0  0  0
   -9.0600   -3.9130   28.4030 O   0  0  0  0  0  0  0  0  0  0  0  0
   -5.8050   -6.4210   25.1060 C   0  0  0  0  0  0  0  0  0  0  0  0
   -5.9750   -4.2160   29.6440 C   0  0  0  0  0  0  0  0  0  0  0  0
   -7.2930   -4.3510   29.7520 C   0  0  0  0  0  0  0  0  0  0  0  0
   -9.5270   -0.2550   25.7890 C   0  0  0  0  0  0  0  0  0  0  0  0
   -7.9270   -3.8050   30.8850 O   0  0  0  0  0  0  0  0  0  0  0  0
   -9.8160   -1.0710   26.9400 O   0  0  0  0  0  0  0  0  0  0  0  0
   -8.2110   -5.0990   28.9220 C   0  0  0  0  0  0  0  0  0  0  0  0
  -10.9000   -2.0860   26.9170 C   0  0  0  0  0  0  0  0  0  0  0  0
   -5.5730   -7.8490   25.1290 C   0  0  0  0  0  0  0  0  0  0  0  0
  -13.3670   -2.0030   26.1710 C   0  0  0  0  0  0  0  0  0  0  0  0
  -12.0210   -0.1460   25.5830 C   0  0  0  0  0  0  0  0  0  0  0  0
  -10.6890    0.6440   25.4370 C   0  0  0  0  0  0  0  0  0  0  0  0
   -4.1840   -4.2110   27.7380 C   0  0  0  0  0  0  0  0  0  0  0  0
  -14.4350   -0.1040   25.3180 C   0  0  0  0  0  0  0  0  0  0  0  0
   -5.2110   -4.9790   28.6430 C   0  0  0  0  0  0  0  0  0  0  0  0
   -4.0160   -5.3570   26.6570 C   0  0  0  0  0  0  0  0  0  0  0  0
   -7.4890   -5.4760   27.6790 C   0  0  0  0  0  0  0  0  0  0  0  0
  -14.5610   -1.3970   25.7610 C   0  0  0  0  0  0  0  0  0  0  0  0
  -13.5620   -3.6330   26.7130 Cl  0  0  0  0  0  0  0  0  0  0  0  0
  -13.1800    0.5520   25.2250 C   0  0  0  0  0  0  0  0  0  0  0  0
  -12.0700   -1.4780   26.0930 C   0  0  0  0  0  0  0  0  0  0  0  0
   -5.3960   -5.6290   26.3230 C   0  0  0  0  0  0  0  0  0  0  0  0
   -6.1180   -5.5110   27.5830 N   0  0  0  0  0  0  0  0  0  0  0  0
  1  3  1  0
  2 21  2  0
  4  3  1  0
  5 13  1  0
  6  7  2  0
  7  9  1  0
  8 10  1  0
 11  4  1  0
 11  7  1  0
 12 10  1  0
 12  1  1  0
 14 23  1  0
 15 25  2  0
 16 15  1  0
 16  8  1  0
 18 22  1  0
 19 17  1  0
 19  6  1  0
 20 17  1  0
 21 11  1  0
 22 14  2  0
 24 18  2  0
 24 15  1  0
 25 14  1  0
 25 12  1  0
 26  5  1  0
 26 20  1  0
 26 27  1  0
 27 21  1  0
 27 19  1  0
M  END
$$$$

     RDKit          3D

 27 29  0  0  0  0  0  0  0  0999 V2000
  -10.7180    0.2030   25.5070 N   0  0  0  0  0  0  0  0  0  0  0  0
   -5.2060  -10.8620   22.3260 C   0  0  0  0  0  0  0  0  0  0  0  0
   -5.2250   -7.1820   23.3780 C   0  0  0  0  0  0  0  0  0  0  0  0
   -7.2760   -4.2670   29.7790 C   0  0  0  0  0  0  0  0  0  0  0  0
   -8.1120   -5.7860   26.7190 O   0  0  0  0  0  0  0  0  0  0  0  0
   -5.9040   -4.1630   29.5850 C   0  0  0  0  0  0  0  0  0  0  0  0
   -5.2130   -4.9960   28.6020 C   0  0  0  0  0  0  0  0  0  0  0  0
   -7.4850   -5.4890   27.7440 C   0  0  0  0  0  0  0  0  0  0  0  0
   -4.2540   -4.2460   27.7470 C   0  0  0  0  0  0  0  0  0  0  0  0
   -4.9000   -8.4170   22.5450 C   0  0  0  0  0  0  0  0  0  0  0  0
   -5.0360   -7.6120   24.7770 C   0  0  0  0  0  0  0  0  0  0  0  0
   -5.8760   -6.8740   25.6710 O   0  0  0  0  0  0  0  0  0  0  0  0
  -10.8280   -1.8630   26.2350 N   0  0  0  0  0  0  0  0  0  0  0  0
  -10.0400   -0.8710   25.9360 C   0  0  0  0  0  0  0  0  0  0  0  0
   -5.4330   -9.6620   23.1760 C   0  0  0  0  0  0  0  0  0  0  0  0
   -9.4870   -5.7290   29.6160 Cl  0  0  0  0  0  0  0  0  0  0  0  0
  -12.1020   -1.4490   26.0120 C   0  0  0  0  0  0  0  0  0  0  0  0
  -11.9910   -0.1260   25.5840 C   0  0  0  0  0  0  0  0  0  0  0  0
   -4.0180   -5.3330   26.6560 C   0  0  0  0  0  0  0  0  0  0  0  0
  -14.5140   -1.4080   25.8100 C   0  0  0  0  0  0  0  0  0  0  0  0
  -13.3480   -2.0580   26.1470 C   0  0  0  0  0  0  0  0  0  0  0  0
  -13.1640    0.5200   25.2450 C   0  0  0  0  0  0  0  0  0  0  0  0
   -5.4570   -5.6690   26.3030 C   0  0  0  0  0  0  0  0  0  0  0  0
  -14.4020   -0.0850   25.3340 C   0  0  0  0  0  0  0  0  0  0  0  0
   -6.1700   -5.4830   27.6130 N   0  0  0  0  0  0  0  0  0  0  0  0
  -13.5370   -3.6700   26.6220 Cl  0  0  0  0  0  0  0  0  0  0  0  0
   -8.0570   -5.1030   28.9210 C   0  0  0  0  0  0  0  0  0  0  0  0
  1 18  2  0
  1 14  1  0
  2 15  1  0
  3 11  1  0
  5  8  2  0
  6  4  2  0
  7  9  1  0
  7  6  1  0
  8 27  1  0
 10 15  1  0
 10  3  1  0
 11 12  1  0
 14 13  1  0
 17 21  1  0
 17 13  2  0
 18 17  1  0
 19  9  1  0
 20 21  2  0
 21 26  1  0
 22 24  2  0
 22 18  1  0
 23 12  1  0
 23 19  1  0
 23 25  1  0
 24 20  1  0
 25  8  1  0
 25  7  1  0
 27 16  1  0
 27  4  1  0
M  END
$$$$

     RDKit          3D

 27 30  0  0  0  0  0  0  0  0999 V2000
   -9.4090   -3.4450   30.3480 N   0  0  0  0  0  0  0  0  0  0  0  0
   -5.9190   -4.1690   29.5950 C   0  0  0  0  0  0  0  0  0  0  0  0
   -4.6220   -6.1100   29.3230 C   0  0  0  0  0  0  0  0  0  0  0  0
   -8.2030   -3.0730   28.3970 O   0  0  0  0  0  0  0  0  0  0  0  0
   -8.2580   -3.7120   29.4550 C   0  0  0  0  0  0  0  0  0  0  0  0
   -9.6900   -4.7130   30.9370 C   0  0  0  0  0  0  0  0  0  0  0  0
   -7.3010   -4.3330   29.7970 C   0  0  0  0  0  0  0  0  0  0  0  0
  -11.9510   -0.1210   25.5960 C   0  0  0  0  0  0  0  0  0  0  0  0
  -14.4180   -0.0620   25.3630 C   0  0  0  0  0  0  0  0  0  0  0  0
  -13.1700    0.5160   25.2550 C   0  0  0  0  0  0  0  0  0  0  0  0
  -13.5530   -3.6600   26.6850 Cl  0  0  0  0  0  0  0  0  0  0  0  0
  -13.3440   -2.0430   26.1050 C   0  0  0  0  0  0  0  0  0  0  0  0
  -12.1030   -1.4640   26.0250 C   0  0  0  0  0  0  0  0  0  0  0  0
  -14.5120   -1.3810   25.7950 C   0  0  0  0  0  0  0  0  0  0  0  0
   -7.4710   -5.4760   27.6470 C   0  0  0  0  0  0  0  0  0  0  0  0
   -9.1600   -5.7820   30.0450 C   0  0  0  0  0  0  0  0  0  0  0  0
  -10.0390   -2.1410   30.4190 C   0  0  0  0  0  0  0  0  0  0  0  0
  -10.3250   -6.5080   29.3500 C   0  0  0  0  0  0  0  0  0  0  0  0
  -11.0890   -2.3290   26.6680 C   0  0  0  0  0  0  0  0  0  0  0  0
   -6.1450   -5.4780   27.6310 N   0  0  0  0  0  0  0  0  0  0  0  0
   -5.4800   -5.6990   26.2720 C   0  0  0  0  0  0  0  0  0  0  0  0
   -4.0370   -5.2470   26.7730 C   0  0  0  0  0  0  0  0  0  0  0  0
  -11.8610   -3.4440   27.3500 C   0  0  0  0  0  0  0  0  0  0  0  0
   -8.1520   -5.8190   26.7360 O   0  0  0  0  0  0  0  0  0  0  0  0
   -8.0700   -5.0920   28.9620 C   0  0  0  0  0  0  0  0  0  0  0  0
   -5.2300   -4.9680   28.6690 C   0  0  0  0  0  0  0  0  0  0  0  0
   -4.2290   -4.1840   27.7700 C   0  0  0  0  0  0  0  0  0  0  0  0
  1 17  1  0
  1  6  1  0
  5  4  1  0
  5  7  1  0
  5  1  1  0
  7  2  1  0
  8 13  1  0
  9 14  2  0
 10  9  1  0
 10  8  2  0
 12 11  1  0
 13 12  2  0
 13 19  1  0
 14 12  1  0
 16 18  1  0
 16  6  1  0
 19 23  1  0
 20 15  1  0
 20 26  1  0
 21 22  1  0
 21 20  1  0
 22 27  1  0
 24 15  2  0
 25 15  1  0
 25  5  1  0
 25  7  1  0
 25 16  1  0
 26  3  1  0
 26  2  1  0
 27 26  1  0
M  END
$$$$

     RDKit          3D

 27 28  0  0  0  0  0  0  0  0999 V2000
  -13.5940   -3.6200   26.6410 Cl  0  0  0  0  0  0  0  0  0  0  0  0
   -7.7300   -1.9370   27.7840 O   0  0  0  0  0  0  0  0  0  0  0  0
  -10.7600    0.4470   25.4210 C   0  0  0  0  0  0  0  0  0  0  0  0
   -9.6380   -1.4900   26.3500 C   0  0  0  0  0  0  0  0  0  0  0  0
  -12.0120   -0.1340   25.5660 C   0  0  0  0  0  0  0  0  0  0  0  0
  -12.0600   -1.4780   26.1030 C   0  0  0  0  0  0  0  0  0  0  0  0
  -13.4000   -2.0900   26.1450 C   0  0  0  0  0  0  0  0  0  0  0  0
  -13.1970    0.5650   25.2760 C   0  0  0  0  0  0  0  0  0  0  0  0
  -13.8040   -4.6400   26.6780 N   0  0  0  0  0  0  0  0  0  0  0  0
   -3.2980   -6.4400   26.9420 O   0  0  0  0  0  0  0  0  0  0  0  0
   -7.2690   -4.3250   29.7890 C   0  0  0  0  0  0  0  0  0  0  0  0
   -8.3720   -2.1420   26.6540 C   0  0  0  0  0  0  0  0  0  0  0  0
  -14.4090   -0.0160   25.4090 C   0  0  0  0  0  0  0  0  0  0  0  0
  -10.8930   -2.1550   26.4250 C   0  0  0  0  0  0  0  0  0  0  0  0
   -9.6260   -0.2020   25.7970 C   0  0  0  0  0  0  0  0  0  0  0  0
   -5.5960   -6.9900   25.5870 C   0  0  0  0  0  0  0  0  0  0  0  0
   -8.1180   -5.0560   28.9290 C   0  0  0  0  0  0  0  0  0  0  0  0
   -4.2540   -4.1950   27.7260 C   0  0  0  0  0  0  0  0  0  0  0  0
   -8.1240   -5.8550   26.7820 O   0  0  0  0  0  0  0  0  0  0  0  0
   -5.9110   -4.2000   29.5680 C   0  0  0  0  0  0  0  0  0  0  0  0
   -5.2280   -5.0220   28.6060 C   0  0  0  0  0  0  0  0  0  0  0  0
  -14.5000   -1.4290   25.7570 C   0  0  0  0  0  0  0  0  0  0  0  0
   -5.4470   -5.6430   26.3420 C   0  0  0  0  0  0  0  0  0  0  0  0
   -4.0220   -5.3200   26.7490 C   0  0  0  0  0  0  0  0  0  0  0  0
   -6.1520   -5.4910   27.5940 N   0  0  0  0  0  0  0  0  0  0  0  0
   -7.4870   -5.4450   27.7090 C   0  0  0  0  0  0  0  0  0  0  0  0
   -7.8750   -2.8730   25.8020 O   0  0  0  0  0  0  0  0  0  0  0  0
  1  9  1  0
  3  5  2  0
  3 15  1  0
  4 14  1  0
  4 12  1  0
  5  6  1  0
  6  7  1  0
  6 14  2  0
  8 13  2  0
  8  5  1  0
 12  2  1  0
 13 22  1  0
 15  4  2  0
 17 11  1  0
 19 26  2  0
 20 11  2  0
 21 18  1  0
 21 20  1  0
 22  7  2  0
 23 16  1  0
 23 24  1  0
 23 25  1  0
 24 10  1  0
 24 18  1  0
 25 26  1  0
 25 21  1  0
 26 17  1  0
 27 12  2  0
M  END
$$$$

     RDKit          3D

 27 27  0  0  0  0  0  0  0  0999 V2000
  -13.0940    1.7420   24.7110 O   0  0  0  0  0  0  0  0  0  0  0  0
   -6.1510   -5.4720   27.5500 N   0  0  0  0  0  0  0  0  0  0  0  0
   -5.4740   -5.7160   26.3660 C   0  0  0  0  0  0  0  0  0  0  0  0
  -13.6000   -3.7000   26.7070 Cl  0  0  0  0  0  0  0  0  0  0  0  0
  -14.4430   -0.0850   25.3820 C   0  0  0  0  0  0  0  0  0  0  0  0
  -13.3720   -2.0960   26.0860 C   0  0  0  0  0  0  0  0  0  0  0  0
  -12.0140   -0.1330   25.6340 C   0  0  0  0  0  0  0  0  0  0  0  0
  -12.0720   -1.4860   26.1030 C   0  0  0  0  0  0  0  0  0  0  0  0
  -12.8590   -3.8810   27.5660 O   0  0  0  0  0  0  0  0  0  0  0  0
  -15.7890   -1.9240   25.8150 O   0  0  0  0  0  0  0  0  0  0  0  0
   -6.3150   -5.8810   25.2510 C   0  0  0  0  0  0  0  0  0  0  0  0
   -5.5480   -6.4180   24.1950 O   0  0  0  0  0  0  0  0  0  0  0  0
  -14.3920   -4.3080   26.1390 O   0  0  0  0  0  0  0  0  0  0  0  0
   -8.3290   -7.1240   24.7230 O   0  0  0  0  0  0  0  0  0  0  0  0
   -6.6610   -4.4900   24.7130 C   0  0  0  0  0  0  0  0  0  0  0  0
  -15.5580    0.6610   25.0660 O   0  0  0  0  0  0  0  0  0  0  0  0
   -7.3770   -6.7030   25.7550 C   0  0  0  0  0  0  0  0  0  0  0  0
   -4.2150   -4.2180   27.7480 C   0  0  0  0  0  0  0  0  0  0  0  0
   -5.2380   -4.9860   28.6110 C   0  0  0  0  0  0  0  0  0  0  0  0
   -4.0400   -5.3030   26.7130 C   0  0  0  0  0  0  0  0  0  0  0  0
   -7.4760   -5.4420   27.7100 C   0  0  0  0  0  0  0  0  0  0  0  0
   -8.1600   -5.8640   26.7360 O   0  0  0  0  0  0  0  0  0  0  0  0
   -8.1790   -5.0730   28.9170 C   0  0  0  0  0  0  0  0  0  0  0  0
  -13.1910    0.5050   25.3140 C   0  0  0  0  0  0  0  0  0  0  0  0
  -14.5520   -1.4220   25.7670 C   0  0  0  0  0  0  0  0  0  0  0  0
   -5.9600   -4.2050   29.5860 C   0  0  0  0  0  0  0  0  0  0  0  0
   -7.2980   -4.2300   29.7580 C   0  0  0  0  0  0  0  0  0  0  0  0
  1 24  1  0
  2 21  1  0
  2 19  1  0
  3 20  1  0
  3  2  1  0
  5 25  1  0
  6  8  1  0
  7  8  2  0
 11 17  1  0
 11  3  1  0
 12 11  1  0
 13  4  1  0
 14 17  1  0
 15 11  1  0
 16  5  1  0
 17 22  1  0
 18 19  1  0
 19 26  1  0
 20 18  1  0
 21 23  1  0
 22 21  1  0
 23 27  1  0
 24  5  2  0
 24  7  1  0
 25 10  1  0
 25  6  2  0
 26 27  2  0
M  END
$$$$

     RDKit          3D

 27 29  0  0  0  0  0  0  0  0999 V2000
   -5.1870   -5.0230   28.6080 C   0  0  0  0  0  0  0  0  0  0  0  0
   -7.4750   -5.4470   27.7370 C   0  0  0  0  0  0  0  0  0  0  0  0
   -4.2140   -4.2140   27.7650 C   0  0  0  0  0  0  0  0  0  0  0  0
   -8.1220   -5.0180   28.9300 C   0  0  0  0  0  0  0  0  0  0  0  0
  -14.4120   -0.1050   25.3310 C   0  0  0  0  0  0  0  0  0  0  0  0
   -5.4620   -5.6750   26.3910 C   0  0  0  0  0  0  0  0  0  0  0  0
   -3.2740   -4.8420   25.4760 C   0  0  0  0  0  0  0  0  0  0  0  0
   -6.3650   -6.4500   24.1510 C   0  0  0  0  0  0  0  0  0  0  0  0
   -5.6970   -6.8800   25.4590 C   0  0  0  0  0  0  0  0  0  0  0  0
   -9.6480   -5.0140   28.9900 C   0  0  0  0  0  0  0  0  0  0  0  0
  -13.0390    1.7800   24.7610 O   0  0  0  0  0  0  0  0  0  0  0  0
   -8.1370   -5.7700   26.7580 O   0  0  0  0  0  0  0  0  0  0  0  0
   -7.2610   -4.2330   29.7450 C   0  0  0  0  0  0  0  0  0  0  0  0
  -11.0970   -3.2220   27.7720 C   0  0  0  0  0  0  0  0  0  0  0  0
   -3.9790   -5.2680   26.6730 C   0  0  0  0  0  0  0  0  0  0  0  0
   -6.1270   -5.5100   27.6050 N   0  0  0  0  0  0  0  0  0  0  0  0
  -13.5600   -3.6430   26.6870 Cl  0  0  0  0  0  0  0  0  0  0  0  0
  -10.1250   -3.4670   28.9450 C   0  0  0  0  0  0  0  0  0  0  0  0
   -5.9580   -4.1660   29.6380 C   0  0  0  0  0  0  0  0  0  0  0  0
  -12.4230   -4.0140   27.7640 C   0  0  0  0  0  0  0  0  0  0  0  0
  -10.9520   -2.0970   26.7780 C   0  0  0  0  0  0  0  0  0  0  0  0
  -10.3470   -6.0000   29.8230 C   0  0  0  0  0  0  0  0  0  0  0  0
  -12.1260   -1.5170   26.0920 C   0  0  0  0  0  0  0  0  0  0  0  0
  -12.0260   -0.1580   25.5870 C   0  0  0  0  0  0  0  0  0  0  0  0
  -13.3540   -2.0510   26.1700 C   0  0  0  0  0  0  0  0  0  0  0  0
  -14.5190   -1.3680   25.7600 C   0  0  0  0  0  0  0  0  0  0  0  0
  -13.1640    0.4940   25.2140 C   0  0  0  0  0  0  0  0  0  0  0  0
  1  3  1  0
  1 19  1  0
  2  4  1  0
  4 10  1  0
  4 13  1  0
  5 26  1  0
  6  9  1  0
  6 15  1  0
  6 16  1  0
  8  9  1  0
 10 22  1  0
 11 27  1  0
 12  2  2  0
 14 18  1  0
 15  7  1  0
 15  3  1  0
 16  2  1  0
 16  1  1  0
 17 20  1  0
 18 10  1  0
 19 13  2  0
 20 14  2  3
 21 14  1  0
 23 25  1  0
 23 21  1  0
 24 23  2  0
 26 25  2  0
 27  5  2  0
 27 24  1  0
M  END
$$$$

     RDKit          3D

 27 29  0  0  0  0  0  0  0  0999 V2000
  -11.2390   -3.1420   29.4440 C   0  0  0  0  0  0  0  0  0  0  0  0
   -8.3830   -1.6330   29.4090 O   0  0  0  0  0  0  0  0  0  0  0  0
   -9.7260   -3.4570   29.6800 C   0  0  0  0  0  0  0  0  0  0  0  0
   -8.1120   -5.0480   28.9060 C   0  0  0  0  0  0  0  0  0  0  0  0
   -5.2180   -5.0060   28.5970 C   0  0  0  0  0  0  0  0  0  0  0  0
   -8.1130   -5.8070   26.7240 O   0  0  0  0  0  0  0  0  0  0  0  0
   -7.2950   -4.3140   29.7590 C   0  0  0  0  0  0  0  0  0  0  0  0
   -4.2430   -4.2290   27.7570 C   0  0  0  0  0  0  0  0  0  0  0  0
   -8.9290   -2.3330   30.2450 C   0  0  0  0  0  0  0  0  0  0  0  0
   -5.9320   -4.2410   29.6340 C   0  0  0  0  0  0  0  0  0  0  0  0
   -5.9070   -5.8980   25.3020 O   0  0  0  0  0  0  0  0  0  0  0  0
  -14.4400   -0.0770   25.3260 C   0  0  0  0  0  0  0  0  0  0  0  0
  -13.5960   -3.6550   26.6500 Cl  0  0  0  0  0  0  0  0  0  0  0  0
  -13.1020    0.5130   25.2560 C   0  0  0  0  0  0  0  0  0  0  0  0
  -14.5260   -1.3810   25.8270 C   0  0  0  0  0  0  0  0  0  0  0  0
   -6.1670   -5.4710   27.5430 N   0  0  0  0  0  0  0  0  0  0  0  0
  -13.3420   -2.0650   26.0840 C   0  0  0  0  0  0  0  0  0  0  0  0
  -12.0750   -1.5170   26.0490 C   0  0  0  0  0  0  0  0  0  0  0  0
  -11.9780   -0.1690   25.5710 C   0  0  0  0  0  0  0  0  0  0  0  0
   -4.0320   -5.3570   26.7740 C   0  0  0  0  0  0  0  0  0  0  0  0
   -5.4760   -5.7160   26.3880 C   0  0  0  0  0  0  0  0  0  0  0  0
   -7.5260   -5.4050   27.6640 C   0  0  0  0  0  0  0  0  0  0  0  0
   -8.7560   -2.0460   31.4210 O   0  0  0  0  0  0  0  0  0  0  0  0
  -12.0560   -3.4630   30.7570 C   0  0  0  0  0  0  0  0  0  0  0  0
   -9.2600   -4.3320   28.6120 O   0  0  0  0  0  0  0  0  0  0  0  0
   -4.5350   -6.2430   29.2030 C   0  0  0  0  0  0  0  0  0  0  0  0
  -11.9360   -2.1020   30.2190 C   0  0  0  0  0  0  0  0  0  0  0  0
  1  3  1  0
  1 27  1  0
  1 24  1  0
  2  9  2  0
  3 25  1  0
  3  9  1  0
  4 25  1  0
  4  7  1  0
  5 26  1  0
  5 10  1  0
  6 22  2  0
  8  5  1  0
  9 23  1  0
 10  7  2  0
 11 21  2  0
 12 15  1  0
 14 12  2  0
 14 19  1  0
 15 17  2  0
 16 22  1  0
 16  5  1  0
 17 13  1  0
 18 17  1  0
 19 18  2  0
 20  8  1  0
 21 20  1  0
 21 16  1  0
 22  4  1  0
 27 24  1  0
M  END
$$$$

     RDKit          3D

 27 30  0  0  0  0  0  0  0  0999 V2000
   -5.9530   -4.1570   29.6360 C   0  0  0  0  0  0  0  0  0  0  0  0
   -8.1270   -5.8030   26.7170 O   0  0  0  0  0  0  0  0  0  0  0  0
   -4.2380   -4.1850   27.7860 C   0  0  0  0  0  0  0  0  0  0  0  0
   -8.1060   -5.0500   28.9260 C   0  0  0  0  0  0  0  0  0  0  0  0
   -4.0250   -5.2660   26.7110 C   0  0  0  0  0  0  0  0  0  0  0  0
  -10.1860   -3.0150   27.2250 C   0  0  0  0  0  0  0  0  0  0  0  0
   -9.9030   -0.7110   26.1040 N   0  0  0  0  0  0  0  0  0  0  0  0
  -10.0590   -3.7510   29.6820 C   0  0  0  0  0  0  0  0  0  0  0  0
   -9.8300   -2.8160   28.6220 N   0  0  0  0  0  0  0  0  0  0  0  0
  -10.7700   -1.8160   26.4730 C   0  0  0  0  0  0  0  0  0  0  0  0
  -10.6970    0.2360   25.6280 N   0  0  0  0  0  0  0  0  0  0  0  0
   -9.5510   -5.1390   29.2440 C   0  0  0  0  0  0  0  0  0  0  0  0
  -15.6710   -1.9850   25.9010 F   0  0  0  0  0  0  0  0  0  0  0  0
   -7.3030   -4.2860   29.7830 C   0  0  0  0  0  0  0  0  0  0  0  0
   -9.8540   -6.1850   30.3190 C   0  0  0  0  0  0  0  0  0  0  0  0
   -5.4010   -7.2890   26.2330 C   0  0  0  0  0  0  0  0  0  0  0  0
  -13.1570    0.4970   25.2300 C   0  0  0  0  0  0  0  0  0  0  0  0
  -13.3940   -2.1160   26.1480 C   0  0  0  0  0  0  0  0  0  0  0  0
  -12.0990   -1.5330   26.0240 C   0  0  0  0  0  0  0  0  0  0  0  0
  -11.9900   -0.1670   25.5870 C   0  0  0  0  0  0  0  0  0  0  0  0
  -13.6250   -3.7200   26.6500 Cl  0  0  0  0  0  0  0  0  0  0  0  0
   -6.1380   -5.4550   27.5790 N   0  0  0  0  0  0  0  0  0  0  0  0
   -7.4770   -5.4420   27.7280 C   0  0  0  0  0  0  0  0  0  0  0  0
   -5.2000   -5.0460   28.6240 C   0  0  0  0  0  0  0  0  0  0  0  0
  -14.3950   -0.0750   25.3390 C   0  0  0  0  0  0  0  0  0  0  0  0
  -14.4660   -1.3820   25.8080 C   0  0  0  0  0  0  0  0  0  0  0  0
   -5.4610   -5.7710   26.3830 C   0  0  0  0  0  0  0  0  0  0  0  0
  1 14  2  0
  2 23  2  0
  4 12  1  0
  4 14  1  0
  5  3  1  0
  6  9  1  0
  7 10  1  0
  9  8  1  0
 10  6  1  0
 11  7  2  0
 12  8  1  0
 12 15  1  0
 17 25  2  0
 18 21  1  0
 19 18  1  0
 19 10  2  0
 20 17  1  0
 20 11  1  0
 20 19  1  0
 22 23  1  0
 22 24  1  0
 23  4  1  0
 24  3  1  0
 24  1  1  0
 25 26  1  0
 26 13  1  0
 26 18  2  0
 27 16  1  0
 27  5  1  0
 27 22  1  0
M  END
$$$$

     RDKit          3D

 27 28  0  0  0  0  0  0  0  0999 V2000
  -13.3620   -2.0770   26.1090 C   0  0  0  0  0  0  0  0  0  0  0  0
  -14.5310   -1.3580   25.8030 C   0  0  0  0  0  0  0  0  0  0  0  0
  -11.9780   -0.1040   25.5680 C   0  0  0  0  0  0  0  0  0  0  0  0
  -13.1190    0.5470   25.2870 C   0  0  0  0  0  0  0  0  0  0  0  0
  -12.0880   -1.4430   26.0340 C   0  0  0  0  0  0  0  0  0  0  0  0
  -13.5690    2.6910   25.7140 F   0  0  0  0  0  0  0  0  0  0  0  0
  -11.9650   -1.9440   29.6690 N   0  0  0  0  0  0  0  0  0  0  0  0
  -11.1580   -5.9970   30.5730 O   0  0  0  0  0  0  0  0  0  0  0  0
  -11.4790   -3.2820   29.3290 C   0  0  0  0  0  0  0  0  0  0  0  0
  -11.6980    2.2310   24.5200 F   0  0  0  0  0  0  0  0  0  0  0  0
   -8.0850   -5.0350   28.9270 C   0  0  0  0  0  0  0  0  0  0  0  0
   -5.9520   -4.1920   29.6330 C   0  0  0  0  0  0  0  0  0  0  0  0
   -7.2780   -4.3060   29.8020 C   0  0  0  0  0  0  0  0  0  0  0  0
   -6.1630   -5.4840   27.5980 N   0  0  0  0  0  0  0  0  0  0  0  0
   -5.4440   -5.6580   26.3120 C   0  0  0  0  0  0  0  0  0  0  0  0
  -13.5720    2.0460   23.6590 F   0  0  0  0  0  0  0  0  0  0  0  0
  -10.0820   -3.7940   29.7990 C   0  0  0  0  0  0  0  0  0  0  0  0
   -8.1410   -5.7770   26.7110 O   0  0  0  0  0  0  0  0  0  0  0  0
  -12.9530    1.9450   24.7970 C   0  0  0  0  0  0  0  0  0  0  0  0
   -9.9050   -6.1440   30.0790 C   0  0  0  0  0  0  0  0  0  0  0  0
   -9.5620   -5.0370   29.1290 N   0  0  0  0  0  0  0  0  0  0  0  0
   -7.4910   -5.4200   27.6800 C   0  0  0  0  0  0  0  0  0  0  0  0
   -4.0190   -5.3090   26.7650 C   0  0  0  0  0  0  0  0  0  0  0  0
  -13.5600   -3.6990   26.6320 Cl  0  0  0  0  0  0  0  0  0  0  0  0
  -14.3990   -0.0450   25.3530 C   0  0  0  0  0  0  0  0  0  0  0  0
   -5.2120   -5.0080   28.6030 C   0  0  0  0  0  0  0  0  0  0  0  0
   -4.2880   -4.1670   27.7260 C   0  0  0  0  0  0  0  0  0  0  0  0
  1 24  1  0
  2  1  2  0
  3  5  2  0
  4 25  2  0
  4  3  1  0
  5  1  1  0
  9  7  1  0
  9 17  2  3
 10 19  1  0
 11 21  1  0
 11 13  1  0
 12 13  2  0
 14 22  1  0
 14 26  1  0
 15 23  1  0
 15 14  1  0
 16 19  1  0
 18 22  2  0
 19  4  1  0
 19  6  1  0
 20  8  1  0
 21 17  1  0
 21 20  1  0
 22 11  1  0
 23 27  1  0
 25  2  1  0
 26 27  1  0
 26 12  1  0
M  END
$$$$

     RDKit          3D

 27 29  0  0  0  0  0  0  0  0999 V2000
   -5.7820   -6.9400   25.5910 C   0  0  0  0  0  0  0  0  0  0  0  0
   -7.3120   -4.2590   29.7720 C   0  0  0  0  0  0  0  0  0  0  0  0
  -12.0660   -1.4540   26.1070 C   0  0  0  0  0  0  0  0  0  0  0  0
  -11.9520   -0.1660   25.6270 C   0  0  0  0  0  0  0  0  0  0  0  0
   -8.1680   -5.8100   26.7290 O   0  0  0  0  0  0  0  0  0  0  0  0
   -5.9130   -4.2200   29.6250 C   0  0  0  0  0  0  0  0  0  0  0  0
   -5.2240   -5.0120   28.6570 C   0  0  0  0  0  0  0  0  0  0  0  0
   -7.4810   -5.4570   27.6810 C   0  0  0  0  0  0  0  0  0  0  0  0
   -4.0000   -5.3180   26.7360 C   0  0  0  0  0  0  0  0  0  0  0  0
   -6.1530   -5.4490   27.6260 N   0  0  0  0  0  0  0  0  0  0  0  0
   -9.5190   -5.1200   29.2150 C   0  0  0  0  0  0  0  0  0  0  0  0
  -11.3150   -3.7830   28.2490 C   0  0  0  0  0  0  0  0  0  0  0  0
  -11.7890    2.4620   24.5410 C   0  0  0  0  0  0  0  0  0  0  0  0
  -10.7790    0.4820   25.4440 C   0  0  0  0  0  0  0  0  0  0  0  0
  -10.0760   -3.7300   29.1020 C   0  0  0  0  0  0  0  0  0  0  0  0
  -10.6640    1.7850   24.9660 C   0  0  0  0  0  0  0  0  0  0  0  0
   -4.2360   -4.2090   27.7420 C   0  0  0  0  0  0  0  0  0  0  0  0
   -8.0820   -5.0740   28.9460 C   0  0  0  0  0  0  0  0  0  0  0  0
   -6.2210   -6.6140   24.1920 C   0  0  0  0  0  0  0  0  0  0  0  0
  -12.1990   -3.8120   27.6600 C   0  0  0  0  0  0  0  0  0  0  0  0
  -14.4080   -0.0230   25.3370 C   0  0  0  0  0  0  0  0  0  0  0  0
   -5.4850   -5.6710   26.3360 C   0  0  0  0  0  0  0  0  0  0  0  0
  -13.1640    0.5330   25.2480 C   0  0  0  0  0  0  0  0  0  0  0  0
  -13.3390   -2.0770   26.1170 C   0  0  0  0  0  0  0  0  0  0  0  0
  -14.5280   -1.3440   25.7160 C   0  0  0  0  0  0  0  0  0  0  0  0
  -13.5500   -3.6260   26.6560 Cl  0  0  0  0  0  0  0  0  0  0  0  0
  -13.0000    1.8280   24.6900 C   0  0  0  0  0  0  0  0  0  0  0  0
  3 24  1  0
  4  3  2  0
  5  8  2  0
  6  2  2  0
  7 17  1  0
  7  6  1  0
  8 18  1  0
  9 17  1  0
 10  8  1  0
 10  7  1  0
 12 15  1  0
 13 27  2  0
 13 16  1  0
 14  4  1  0
 15 11  1  0
 16 14  2  0
 18 11  1  0
 18  2  1  0
 19  1  1  0
 20 12  3  0
 21 25  1  0
 22  1  1  0
 22  9  1  0
 22 10  1  0
 23 21  2  0
 23  4  1  0
 24 26  1  0
 25 24  2  0
 27 23  1  0
M  END
$$$$

     RDKit          3D

 27 31  0  0  0  0  0  0  0  0999 V2000
   -8.1360   -5.8550   26.6700 O   0  0  0  0  0  0  0  0  0  0  0  0
   -5.4400   -5.6870   26.3630 C   0  0  0  0  0  0  0  0  0  0  0  0
   -4.0180   -5.2920   26.7090 C   0  0  0  0  0  0  0  0  0  0  0  0
   -8.1380   -5.0780   28.9400 C   0  0  0  0  0  0  0  0  0  0  0  0
   -4.2360   -4.1580   27.7870 C   0  0  0  0  0  0  0  0  0  0  0  0
  -13.1400    0.5600   25.2740 C   0  0  0  0  0  0  0  0  0  0  0  0
   -6.1270   -5.4440   27.6110 N   0  0  0  0  0  0  0  0  0  0  0  0
   -9.1620   -3.2340   27.4890 C   0  0  0  0  0  0  0  0  0  0  0  0
   -8.5270   -6.4170   29.5970 C   0  0  0  0  0  0  0  0  0  0  0  0
   -5.8650   -4.2650   29.5670 C   0  0  0  0  0  0  0  0  0  0  0  0
   -7.2830   -4.3210   29.7640 C   0  0  0  0  0  0  0  0  0  0  0  0
   -7.4580   -5.4810   27.6660 C   0  0  0  0  0  0  0  0  0  0  0  0
  -10.2950   -2.3940   27.6560 C   0  0  0  0  0  0  0  0  0  0  0  0
   -3.8240   -6.1830   27.7610 O   0  0  0  0  0  0  0  0  0  0  0  0
  -14.4910   -0.0650   25.3300 C   0  0  0  0  0  0  0  0  0  0  0  0
  -10.8270   -2.2590   26.2840 C   0  0  0  0  0  0  0  0  0  0  0  0
   -5.2880   -4.9560   28.6270 C   0  0  0  0  0  0  0  0  0  0  0  0
   -5.9260   -4.6970   25.3140 C   0  0  0  0  0  0  0  0  0  0  0  0
  -10.4490    0.6010   25.4620 Cl  0  0  0  0  0  0  0  0  0  0  0  0
  -12.0450   -0.1330   25.5490 C   0  0  0  0  0  0  0  0  0  0  0  0
  -12.0850   -1.4710   26.0690 C   0  0  0  0  0  0  0  0  0  0  0  0
  -13.3440   -2.0920   26.1440 C   0  0  0  0  0  0  0  0  0  0  0  0
  -14.4940   -1.3980   25.8050 C   0  0  0  0  0  0  0  0  0  0  0  0
   -9.2310   -4.1950   28.5440 O   0  0  0  0  0  0  0  0  0  0  0  0
   -7.6380   -4.0850   31.1100 O   0  0  0  0  0  0  0  0  0  0  0  0
   -5.0390   -6.2550   28.2510 C   0  0  0  0  0  0  0  0  0  0  0  0
  -13.5090   -3.6670   26.6390 Cl  0  0  0  0  0  0  0  0  0  0  0  0
  1 12  2  0
  2 18  1  0
  2  3  1  0
  2  7  1  0
  3 14  1  0
  3  5  1  0
  4  9  1  0
  4 11  1  0
  6 15  2  0
  6 20  1  0
  7 12  1  0
  7 26  1  0
  7 17  1  0
  8 13  1  0
  8 24  1  0
 10 11  1  0
 11 25  1  0
 12  4  1  0
 15 23  1  0
 16 13  1  0
 17  5  1  0
 17 10  1  0
 19 20  1  0
 20 21  2  0
 21 22  1  0
 21 16  1  0
 22 27  1  0
 23 22  2  0
 24  4  1  0
 26 14  1  0
 26 17  1  0
M  END
$$$$
