
     RDKit          3D

 10 11  0  0  0  0  0  0  0  0999 V2000
    9.4900  -33.5930  -32.7150 N   0  0  0  0  0  0  0  0  0  0  0  0
    8.9730  -33.5280  -34.7940 S   0  0  0  0  0  0  0  0  0  0  0  0
    9.2760  -33.9300  -32.2990 P   0  0  0  0  0  0  0  0  0  0  0  0
    9.1540  -32.9120  -33.1280 S   0  0  0  0  0  0  0  0  0  0  0  0
    9.2940  -32.9400  -34.3630 N   0  0  0  0  0  0  0  0  0  0  0  0
    9.2800  -33.5770  -35.4820 F   0  0  0  0  0  0  0  0  0  0  0  0
    9.3950  -33.4660  -33.9120 N   0  0  0  0  0  0  0  0  0  0  0  0
    9.9030  -33.3590  -33.1000 C   0  0  0  0  0  0  0  0  0  0  0  0
    9.2920  -33.5530  -34.5020 N   0  0  0  0  0  0  0  0  0  0  0  0
    9.0030  -33.2040  -32.6710 I   0  0  0  0  0  0  0  0  0  0  0  0
  1  3  1  0
  2  9  1  0
  4  8  1  0
  4 10  1  0
  6  2  1  0
  7  5  1  0
  7  4  1  0
  7  8  1  0
  8  1  1  0
  9  5  1  0
  9  7  1  0
M  END
$$$$

     RDKit          3D

  8  7  0  0  0  0  0  0  0  0999 V2000
    8.8640  -32.6280  -33.9340 Br  0  0  0  0  0  0  0  0  0  0  0  0
    7.9890  -34.4990  -33.7270 B   0  0  0  0  0  0  0  0  0  0  0  0
    9.4740  -33.6740  -34.4910 O   0  0  0  0  0  0  0  0  0  0  0  0
    9.2060  -32.9330  -33.9690 S   0  0  0  0  0  0  0  0  0  0  0  0
   10.4500  -32.4150  -33.8430 Cl  0  0  0  0  0  0  0  0  0  0  0  0
    7.8270  -35.4480  -33.5840 P   0  0  0  0  0  0  0  0  0  0  0  0
    9.5240  -34.6880  -34.0350 N   0  0  0  0  0  0  0  0  0  0  0  0
    9.4980  -34.2980  -33.3230 Br  0  0  0  0  0  0  0  0  0  0  0  0
  2  6  1  0
  3  7  1  0
  3  4  1  0
  4  1  1  0
  4  5  1  0
  7  6  1  0
  7  8  1  0
M  END
$$$$

     RDKit          3D

 12 11  0  0  0  0  0  0  0  0999 V2000
    7.7720  -34.0490  -34.3960 O   0  0  0  0  0  0  0  0  0  0  0  0
    8.6220  -34.0570  -33.6230 C   0  0  0  0  0  0  0  0  0  0  0  0
    9.1630  -35.3170  -31.8460 P   0  0  0  0  0  0  0  0  0  0  0  0
    9.7710  -32.9290  -33.0930 Br  0  0  0  0  0  0  0  0  0  0  0  0
    9.6440  -32.3190  -33.1100 P   0  0  0  0  0  0  0  0  0  0  0  0
    7.0200  -32.1480  -33.7730 N   0  0  0  0  0  0  0  0  0  0  0  0
    9.7830  -34.1190  -32.6550 C   0  0  0  0  0  0  0  0  0  0  0  0
    8.3830  -32.6770  -33.5790 B   0  0  0  0  0  0  0  0  0  0  0  0
    9.5130  -33.7720  -33.1920 B   0  0  0  0  0  0  0  0  0  0  0  0
    7.6150  -33.4000  -34.0120 S   0  0  0  0  0  0  0  0  0  0  0  0
    8.5560  -35.5010  -33.5580 O   0  0  0  0  0  0  0  0  0  0  0  0
    6.9620  -32.6740  -34.1640 B   0  0  0  0  0  0  0  0  0  0  0  0
  1  2  1  0
  2  9  1  0
  5  4  1  0
  7  3  1  0
  8  5  1  0
  9  7  2  3
 10  1  1  0
 10  8  1  0
 11  3  1  0
 12 10  1  0
 12  6  2  0
M  END
$$$$

     RDKit          3D

  6  5  0  0  0  0  0  0  0  0999 V2000
    9.2150  -33.8130  -34.3320 O   0  0  0  0  0  0  0  0  0  0  0  0
    8.6530  -35.2170  -33.4180 S   0  0  0  0  0  0  0  0  0  0  0  0
    7.6790  -34.1390  -33.1610 Cl  0  0  0  0  0  0  0  0  0  0  0  0
    8.6550  -34.2040  -35.5370 Cl  0  0  0  0  0  0  0  0  0  0  0  0
    8.1480  -34.5360  -34.7930 S   0  0  0  0  0  0  0  0  0  0  0  0
    6.9950  -34.6190  -34.7640 Br  0  0  0  0  0  0  0  0  0  0  0  0
  2  3  1  0
  5  4  1  0
  5  6  1  0
  5  1  1  0
  5  2  1  0
M  END
$$$$

     RDKit          3D

  4  4  0  0  0  0  0  0  0  0999 V2000
    7.1130  -35.0390  -33.2720 C   0  0  0  0  0  0  0  0  0  0  0  0
    7.8680  -34.8990  -32.7450 F   0  0  0  0  0  0  0  0  0  0  0  0
    6.9790  -33.8750  -32.4840 N   0  0  0  0  0  0  0  0  0  0  0  0
    6.8890  -34.9580  -31.6970 N   0  0  0  0  0  0  0  0  0  0  0  0
  1  2  1  0
  1  3  1  0
  1  4  1  0
  3  4  1  0
M  END
$$$$

     RDKit          3D

  3  2  0  0  0  0  0  0  0  0999 V2000
    8.8770  -34.3090  -32.4580 Br  0  0  0  0  0  0  0  0  0  0  0  0
    8.8650  -33.3940  -32.6920 B   0  0  0  0  0  0  0  0  0  0  0  0
    9.6680  -33.4780  -32.8110 Cl  0  0  0  0  0  0  0  0  0  0  0  0
  2  1  1  0
  3  2  1  0
M  END
$$$$

     RDKit          3D

  3  2  0  0  0  0  0  0  0  0999 V2000
    9.3990  -33.5900  -33.4310 C   0  0  0  0  0  0  0  0  0  0  0  0
    8.8220  -33.2960  -33.8440 F   0  0  0  0  0  0  0  0  0  0  0  0
    9.0910  -33.0450  -33.6810 O   0  0  0  0  0  0  0  0  0  0  0  0
  2  3  1  0
  3  1  1  0
M  END
$$$$

     RDKit          3D

  3  2  0  0  0  0  0  0  0  0999 V2000
    8.2730  -32.4050  -35.6110 B   0  0  0  0  0  0  0  0  0  0  0  0
    8.0980  -33.5440  -35.1970 O   0  0  0  0  0  0  0  0  0  0  0  0
    8.0930  -34.2740  -34.2290 I   0  0  0  0  0  0  0  0  0  0  0  0
  1  2  1  0
  2  3  1  0
M  END
$$$$

     RDKit          3D

  6  5  0  0  0  0  0  0  0  0999 V2000
   10.0190  -34.1970  -34.7620 P   0  0  0  0  0  0  0  0  0  0  0  0
    8.9550  -33.3920  -34.3860 N   0  0  0  0  0  0  0  0  0  0  0  0
    8.2200  -32.1500  -34.9090 Cl  0  0  0  0  0  0  0  0  0  0  0  0
    9.3830  -33.1070  -33.3590 I   0  0  0  0  0  0  0  0  0  0  0  0
    9.2040  -32.8020  -35.2070 S   0  0  0  0  0  0  0  0  0  0  0  0
   10.8000  -33.9080  -34.0910 Cl  0  0  0  0  0  0  0  0  0  0  0  0
  1  2  1  0
  1  6  1  0
  2  4  1  0
  5  3  1  0
  5  2  1  0
M  END
$$$$

     RDKit          3D

 15 14  0  0  0  0  0  0  0  0999 V2000
    8.6850  -34.0120  -32.3250 I   0  0  0  0  0  0  0  0  0  0  0  0
    8.9630  -34.9750  -33.5100 Cl  0  0  0  0  0  0  0  0  0  0  0  0
    8.4140  -35.8480  -32.8160 F   0  0  0  0  0  0  0  0  0  0  0  0
    8.0070  -31.5360  -35.4870 C   0  0  0  0  0  0  0  0  0  0  0  0
    8.3240  -32.8400  -36.0270 C   0  0  0  0  0  0  0  0  0  0  0  0
    8.1670  -33.5200  -33.6910 F   0  0  0  0  0  0  0  0  0  0  0  0
    8.5230  -33.9730  -33.6700 C   0  0  0  0  0  0  0  0  0  0  0  0
    9.2530  -33.4230  -32.6760 S   0  0  0  0  0  0  0  0  0  0  0  0
    8.0600  -31.8890  -33.2960 P   0  0  0  0  0  0  0  0  0  0  0  0
    8.9390  -32.6500  -35.3910 Cl  0  0  0  0  0  0  0  0  0  0  0  0
    9.7680  -33.8800  -33.6630 C   0  0  0  0  0  0  0  0  0  0  0  0
    9.0830  -33.6220  -36.2320 P   0  0  0  0  0  0  0  0  0  0  0  0
    8.5870  -35.1610  -33.8590 S   0  0  0  0  0  0  0  0  0  0  0  0
    9.2750  -33.7390  -34.2260 N   0  0  0  0  0  0  0  0  0  0  0  0
    9.2380  -33.0080  -34.6780 B   0  0  0  0  0  0  0  0  0  0  0  0
  5  4  1  0
  7  6  1  0
  8  1  1  0
 11  8  1  0
 12  5  1  0
 12 15  1  0
 13  7  1  0
 13  2  1  0
 13  3  1  0
 14  7  1  0
 14 11  1  0
 15 10  1  0
 15 14  1  0
 15  9  1  0
M  END
$$$$

     RDKit          3D

 22 25  0  0  0  0  0  0  0  0999 V2000
    8.2060  -33.8300  -33.0720 O   0  0  0  0  0  0  0  0  0  0  0  0
    6.2670  -32.1240  -33.9020 C   0  0  0  0  0  0  0  0  0  0  0  0
    6.3300  -34.2530  -33.1880 Br  0  0  0  0  0  0  0  0  0  0  0  0
    9.1930  -34.4880  -34.9040 P   0  0  0  0  0  0  0  0  0  0  0  0
    7.6060  -34.0280  -33.2580 S   0  0  0  0  0  0  0  0  0  0  0  0
    8.5790  -35.1130  -34.4730 Br  0  0  0  0  0  0  0  0  0  0  0  0
    9.8080  -31.7360  -35.1910 Br  0  0  0  0  0  0  0  0  0  0  0  0
    7.6550  -32.8390  -32.2380 S   0  0  0  0  0  0  0  0  0  0  0  0
    8.9170  -33.5180  -33.2620 N   0  0  0  0  0  0  0  0  0  0  0  0
    7.0800  -33.7760  -33.7980 S   0  0  0  0  0  0  0  0  0  0  0  0
    8.0880  -33.5110  -32.2820 N   0  0  0  0  0  0  0  0  0  0  0  0
    9.6200  -32.5800  -34.7710 P   0  0  0  0  0  0  0  0  0  0  0  0
    8.4380  -32.9390  -31.2600 O   0  0  0  0  0  0  0  0  0  0  0  0
    8.4920  -34.2670  -33.1010 C   0  0  0  0  0  0  0  0  0  0  0  0
    8.2580  -34.9170  -33.1390 O   0  0  0  0  0  0  0  0  0  0  0  0
    9.4340  -34.6540  -31.8220 Br  0  0  0  0  0  0  0  0  0  0  0  0
    8.0710  -33.3420  -35.6300 P   0  0  0  0  0  0  0  0  0  0  0  0
    7.7740  -32.7410  -34.1560 C   0  0  0  0  0  0  0  0  0  0  0  0
    9.6300  -34.2160  -33.0950 C   0  0  0  0  0  0  0  0  0  0  0  0
    9.5290  -33.9630  -31.6160 S   0  0  0  0  0  0  0  0  0  0  0  0
    8.1340  -33.4110  -33.0090 S   0  0  0  0  0  0  0  0  0  0  0  0
    7.3870  -32.6550  -32.8970 B   0  0  0  0  0  0  0  0  0  0  0  0
  1 21  1  0
  4  6  1  0
  5 21  1  0
  7 12  1  0
  9 14  1  0
  9 19  1  0
  9 21  1  0
 10  5  1  0
 10  3  1  0
 11  8  1  0
 14  1  1  0
 15 14  2  0
 17  4  1  0
 17 12  1  0
 18 17  1  0
 18 10  1  0
 18 21  1  0
 18 22  1  0
 19 20  1  0
 20 16  1  0
 20 13  2  0
 21 22  1  0
 21 11  1  0
 22  2  1  0
 22  8  1  0
M  END
$$$$

     RDKit          3D

 10 10  0  0  0  0  0  0  0  0999 V2000
    8.5880  -33.7400  -35.0350 B   0  0  0  0  0  0  0  0  0  0  0  0
    7.9650  -33.8600  -34.0160 F   0  0  0  0  0  0  0  0  0  0  0  0
    7.7790  -33.6620  -33.6690 N   0  0  0  0  0  0  0  0  0  0  0  0
    8.4090  -33.1960  -34.0650 Cl  0  0  0  0  0  0  0  0  0  0  0  0
    9.5340  -36.0220  -32.8960 S   0  0  0  0  0  0  0  0  0  0  0  0
    9.1670  -33.6660  -33.0810 B   0  0  0  0  0  0  0  0  0  0  0  0
    7.7270  -34.3470  -35.1220 B   0  0  0  0  0  0  0  0  0  0  0  0
    9.0440  -34.2900  -34.5150 B   0  0  0  0  0  0  0  0  0  0  0  0
    7.7570  -34.9630  -33.7660 N   0  0  0  0  0  0  0  0  0  0  0  0
    9.5650  -34.3070  -33.2840 B   0  0  0  0  0  0  0  0  0  0  0  0
  1  8  1  0
  2  3  1  0
  3  6  1  0
  4  3  1  0
  7  1  1  0
  8 10  1  0
  9  3  1  0
  9 10  1  0
 10  6  1  0
 10  5  1  0
M  END
$$$$

     RDKit          3D

  7  6  0  0  0  0  0  0  0  0999 V2000
    7.4500  -32.9610  -33.2760 F   0  0  0  0  0  0  0  0  0  0  0  0
    8.7240  -33.2050  -33.2420 S   0  0  0  0  0  0  0  0  0  0  0  0
    9.2460  -35.1040  -32.9720 S   0  0  0  0  0  0  0  0  0  0  0  0
    9.7550  -32.5700  -31.7830 Cl  0  0  0  0  0  0  0  0  0  0  0  0
    7.3090  -33.7770  -33.2550 N   0  0  0  0  0  0  0  0  0  0  0  0
    9.4180  -33.8370  -32.7210 N   0  0  0  0  0  0  0  0  0  0  0  0
    8.6310  -34.0630  -33.0150 C   0  0  0  0  0  0  0  0  0  0  0  0
  1  5  1  0
  2  7  1  0
  5  7  1  0
  6  4  1  0
  7  3  1  0
  7  6  1  0
M  END
$$$$

     RDKit          3D

  6  5  0  0  0  0  0  0  0  0999 V2000
    7.1290  -32.9770  -33.7520 O   0  0  0  0  0  0  0  0  0  0  0  0
    7.6480  -33.6020  -33.6390 S   0  0  0  0  0  0  0  0  0  0  0  0
    7.7300  -33.7990  -34.5490 F   0  0  0  0  0  0  0  0  0  0  0  0
    8.3010  -33.6190  -33.2140 N   0  0  0  0  0  0  0  0  0  0  0  0
    7.8560  -33.0900  -31.9270 Cl  0  0  0  0  0  0  0  0  0  0  0  0
    7.0050  -34.4220  -33.5200 Cl  0  0  0  0  0  0  0  0  0  0  0  0
  1  2  1  0
  2  3  1  0
  2  6  1  0
  2  4  1  0
  4  5  1  0
M  END
$$$$

     RDKit          3D

  5  4  0  0  0  0  0  0  0  0999 V2000
    9.4300  -34.2930  -33.8940 O   0  0  0  0  0  0  0  0  0  0  0  0
    8.4330  -33.0570  -32.8930 B   0  0  0  0  0  0  0  0  0  0  0  0
    7.7620  -33.9340  -33.2270 O   0  0  0  0  0  0  0  0  0  0  0  0
    7.5360  -34.2630  -32.0700 C   0  0  0  0  0  0  0  0  0  0  0  0
    9.2050  -34.1580  -34.2020 S   0  0  0  0  0  0  0  0  0  0  0  0
  3  2  1  0
  3  4  1  0
  5  1  2  0
  5  2  1  0
M  END
$$$$

     RDKit          3D

 11 10  0  0  0  0  0  0  0  0999 V2000
    8.1820  -36.0200  -34.2320 F   0  0  0  0  0  0  0  0  0  0  0  0
    8.0280  -35.0010  -32.7020 C   0  0  0  0  0  0  0  0  0  0  0  0
    9.3230  -34.5370  -33.2960 Cl  0  0  0  0  0  0  0  0  0  0  0  0
    9.4800  -34.0990  -32.4980 I   0  0  0  0  0  0  0  0  0  0  0  0
    7.1610  -33.0500  -33.2850 Cl  0  0  0  0  0  0  0  0  0  0  0  0
    9.2400  -34.1290  -33.2630 N   0  0  0  0  0  0  0  0  0  0  0  0
    8.7920  -34.5130  -32.6070 O   0  0  0  0  0  0  0  0  0  0  0  0
    8.8870  -34.6810  -34.7130 N   0  0  0  0  0  0  0  0  0  0  0  0
    7.7760  -33.5150  -33.4990 B   0  0  0  0  0  0  0  0  0  0  0  0
    8.9000  -34.4260  -33.7230 C   0  0  0  0  0  0  0  0  0  0  0  0
   10.2200  -34.2370  -33.8970 F   0  0  0  0  0  0  0  0  0  0  0  0
  2  7  1  0
  3  6  1  0
  6  7  1  0
  6  4  1  0
  8  1  1  0
  8 10  1  0
  9  5  1  0
 10 11  1  0
 10  9  1  0
 10  6  1  0
M  END
$$$$

     RDKit          3D

  4  4  0  0  0  0  0  0  0  0999 V2000
    8.1470  -34.9070  -32.8520 P   0  0  0  0  0  0  0  0  0  0  0  0
    7.1660  -34.3690  -34.3050 I   0  0  0  0  0  0  0  0  0  0  0  0
    7.3970  -35.8660  -34.2290 P   0  0  0  0  0  0  0  0  0  0  0  0
    9.1580  -35.7430  -33.9450 O   0  0  0  0  0  0  0  0  0  0  0  0
  3  2  1  0
  3  4  1  0
  3  1  1  0
  4  1  1  0
M  END
$$$$

     RDKit          3D

 12 12  0  0  0  0  0  0  0  0999 V2000
    9.4350  -33.3460  -34.1770 I   0  0  0  0  0  0  0  0  0  0  0  0
    8.8080  -33.7650  -31.8580 P   0  0  0  0  0  0  0  0  0  0  0  0
    9.3150  -33.1410  -33.1970 S   0  0  0  0  0  0  0  0  0  0  0  0
    8.9150  -33.6450  -34.3850 P   0  0  0  0  0  0  0  0  0  0  0  0
   10.2900  -33.1640  -33.4090 I   0  0  0  0  0  0  0  0  0  0  0  0
    8.4360  -34.0450  -32.7190 B   0  0  0  0  0  0  0  0  0  0  0  0
    8.3700  -33.6000  -35.1030 C   0  0  0  0  0  0  0  0  0  0  0  0
    8.5670  -34.2140  -34.3350 Cl  0  0  0  0  0  0  0  0  0  0  0  0
    8.7630  -34.5830  -33.7710 N   0  0  0  0  0  0  0  0  0  0  0  0
    8.8950  -33.6090  -32.6940 C   0  0  0  0  0  0  0  0  0  0  0  0
   10.1460  -34.7290  -32.1990 P   0  0  0  0  0  0  0  0  0  0  0  0
    9.9280  -34.1870  -33.5110 S   0  0  0  0  0  0  0  0  0  0  0  0
  3  5  1  0
  3 10  1  0
  4  7  1  0
  4  8  1  0
  4  1  1  0
  4 12  1  0
  6 10  1  0
  9 12  1  0
  9  6  1  0
 10  2  2  0
 12  3  1  0
 12 11  1  0
M  END
$$$$

     RDKit          3D

  9  8  0  0  0  0  0  0  0  0999 V2000
    8.4290  -33.1990  -33.4230 N   0  0  0  0  0  0  0  0  0  0  0  0
    8.7050  -32.2610  -32.9960 Br  0  0  0  0  0  0  0  0  0  0  0  0
    8.7580  -32.4560  -32.4790 B   0  0  0  0  0  0  0  0  0  0  0  0
    8.5580  -34.8090  -32.0700 B   0  0  0  0  0  0  0  0  0  0  0  0
    8.5600  -35.7740  -31.9620 N   0  0  0  0  0  0  0  0  0  0  0  0
    7.9250  -34.8500  -31.9650 I   0  0  0  0  0  0  0  0  0  0  0  0
    8.0400  -34.1490  -32.3610 O   0  0  0  0  0  0  0  0  0  0  0  0
    7.8370  -33.5390  -31.5700 C   0  0  0  0  0  0  0  0  0  0  0  0
    8.0590  -33.4820  -32.7450 B   0  0  0  0  0  0  0  0  0  0  0  0
  1  9  1  0
  2  3  1  0
  4  6  1  0
  4  5  1  0
  7  4  1  0
  9  3  1  0
  9  7  1  0
  9  8  1  0
M  END
$$$$

     RDKit          3D

  4  3  0  0  0  0  0  0  0  0999 V2000
    7.6500  -33.2050  -33.8090 Br  0  0  0  0  0  0  0  0  0  0  0  0
    7.6270  -30.8780  -32.7760 P   0  0  0  0  0  0  0  0  0  0  0  0
    7.7430  -32.6980  -32.8020 N   0  0  0  0  0  0  0  0  0  0  0  0
    7.1160  -33.2320  -33.6910 O   0  0  0  0  0  0  0  0  0  0  0  0
  1  4  1  0
  3  2  1  0
  4  3  1  0
M  END
$$$$
